[ 2017-02-19T17:02:15+08:00 ] 127.0.0.1 127.0.0.1 POST /AHalf/public/index.php/index/makedouble/combine/
[ log ] localhost/AHalf/public/index.php/index/makedouble/combine/ [运行时间：0.060857s][吞吐率：16.43req/s] [内存消耗：1,424.89kb] [文件加载：42]
[ info ] [ LANG ] E:\GratuateProject\phpStudy\WWW\AHalf\thinkphp\lang\zh-cn.php
[ info ] [ ROUTE ] array (
  'type' => 'module',
  'module' => 
  array (
    0 => 'index',
    1 => 'makedouble',
    2 => 'combine',
  ),
)
[ info ] [ HEADER ] array (
  'accept-language' => 'zh-CN,zh;q=0.8',
  'accept-encoding' => 'gzip, deflate, br',
  'referer' => 'http://localhost/AHalf/public/index.php/index/makedouble/index/',
  'content-type' => 'application/x-www-form-urlencoded; charset=UTF-8',
  'user-agent' => 'Mozilla/5.0 (Linux; Android 6.0; Nexus 5 Build/MRA58N) AppleWebKit/537.36 (KHTML, like Gecko) Chrome/55.0.2883.87 Mobile Safari/537.36',
  'x-requested-with' => 'XMLHttpRequest',
  'origin' => 'http://localhost',
  'accept' => '*/*',
  'cache-control' => 'no-cache',
  'pragma' => 'no-cache',
  'content-length' => '86472',
  'connection' => 'keep-alive',
  'host' => 'localhost',
)
[ info ] [ PARAM ] array (
  'uploadImg' => 'iVBORw0KGgoAAAANSUhEUgAAASwAAACWCAYAAABkW7XSAAAgAElEQVR4Xuy9Z4xt2Xkltm+o9EJnks3U7G42k5jFIIoKHGkoahRHxtiG/cew/9gwbP+wMIZhwIABS6NgS7ZlY2wM4IQZj2FrxgOMNNSI0ohJzM0otshmBzbJDuxudmB3v1fxBmOt9a29v3PuvVW3qh4tG3CR1a/q1r0n7LP32utbXxrMp9N54dec//9/9deglDLgf9plznHd1/jCcQ6fYnYNj83jxoGv9XX3hgQDlF46+2PN11znyTWaKwvPM57leYZ86Lvu3f2a4/3eX5vqLmNODYfDMhoMyxCjOe8ecz6aFfw9Vg/HG78N0kIacPxwQ/N49AMeezgc8L39rxnfp/PM57P486AMh6Mym+W/4Zj+O6bV4tPGa7PZjN9lMIqrwvnjc3WsdBq8H9fme8drvj9fJ/6G443H4zKdTuvfcd2TWRqPGL/RaMT3DYZtVNr9LX/QRzGmHNCYavOC/2Eo/3/A6s4ZPvcEWJxr51lBdc7FcX9AYLswYa8BqCzbILSSrtGYeJw9Jp6d5xhvLsIlUL3mNRuwsFCxsPANsDK4eDETDAYJQOKsowpfDUS0xwqkdBn6ucxnZdC71i5gaRx0HUMCBa7L03E+F7j6PX3w03sBQKVg353153F9vu2TGayWHdeAVoEIIBdLZjpv42HQx/sEmI0PZXDtnw+fmwzaJoCLr/vEHMMI2PYgczQXUf/Mr/QX0XkWfgWS/mS8BrtyfeoGq0W6goE9M2NZde0cj2sw5suYCm7lvOzwRMDinne26eG5sXSOnGNMvDv3r2pNwPqx/3wqkOodZxS32X1dCzTfwgBsCovToBQAj2UN0NGvszIcDE9cam1ha9HqPGBNYkEEvRj/ZQs/gyvABP/z9QrE8mLX3/DSYBCw2wMgg5DO3QCUrw9KMWDlazFry4B17ISZz8sUg83riH2R2K4HkABLgzw4D6iItBny48dkAsXDO9MMPw6wrsXiDKxaMDnjms8OWDHyfVM2j8W5xjzM5KUM66wLP57jXxlgnYPVLmVY629qP/Hr8zK0GczVK4bjPb8tapl+AA2CwFym1nw4L7MyISczuAGasK7IRQbga2KWZCtl1MF8mpSdPUCmENgczxhzpQGPXltkLTYr8XnwtgC9DHBhEnY+PzeD625Ey8w4f07bLs4S1CcArbPOycRkTuZrXTzuvExxr3FPhFT+KpbZAazENc+EKaJnQfNXLdCzLs6VgPWDNFHqE9CkONOonARYZwWVuJhjx2V2RsYcO2/Vr3p3XtnKD4phnQOwqv6Yr3l9wPrJX9OCsknIfSw0KP1sDWpYynxSRhXcpFVx2eJPZVZGw1GQAMlYYlkCOP7GRSxWgzcA5MBtBFhY3HgN78MiBtYNymyazUDAm5hOF7D0+WYSzspskPUufC6ZWkmzK3NeAb9x337UyzQy/VHsCt8+g03XLmBpKq4yOdvr8zIY4trimcFKGA7KpAD2xz8AwKpUf5mkuP7EWcCGv0rAEsSfffEft/B9bBHe00PiKhbEOfuDACyPhc2JM1yzVn5j4vmum0Bz+rFYddxTAOxf+7UGKgAIHnKIe56GWRaMCqA2m5A5VTNxMCgTvk9iN4RpfBkCKFvF/gVzDKZXBQKcKoFaJeAw3fA//J0aWDrfTKDmqQNwMwOcwewMDQt/n82nBBSuSoMmrhPAhXMY9IgPMgn91de+fM14nSL8EMeVlkXsxYk6NDHM5DhX04SlEwpedR34sExdDdR0Pi2DKfTCUZmNwGTrHadd7YwsiOQ1LsD2+sKsO9MiOo65nQVMVjCDlbvzOXZ8j8lKk/CsQBgjuxbDOicT6pGV450Qq4BsyTUsjHcW3c9zzT3wP8V8/qlfxyIyaGG3h6dMY933no3mE2FFZU1gGgABA5YW/oCalcxHAEMz60Y0JbWfCYywQM2OfE4CQ2xMNsOyKUUHQGVZ1rW6Hr8BbgKsJe1hPqZ1MV3ftIwIsQCxSdOzANq9MZCh6S+Bl8w2if2drzAJq6bFcZNP1cf1Z0bDIfWwyUj3tYkhCS/jImCd4uH2wSgcj9XuP4+3pnvstAjqJI93VCN3ARqPeeGYxVDZUHsQZ2dX2jtiVlO/aF8GqnMCllZMVy/UDLDxH6c8JxNKE3O1Wpwnaf98ywCrtxN3nuVZAcubW087XXN6/PXf0DPCkA4hL9EcxHBCjPdClMk4LtPKeLIONBgN5cqvLAMQJhDsitU2vRpgATA6AAgGA8BKIQhVO4oQA12vxxuAK5Nv0Uysog3/huOSDAVTwrX5uvl3mJ9xzdMlD12OgBSuEGPcN1E1fjpfvrcGgGmuxBSaAAzHEt83p/MyifM0wFrTi7LWc19lppz5HL2FsLAWjpvc65ou6RgZFDsmylkWvXchaxcJCCuwnOW4vSfRuWaDedMtzmRurnzYq8b7OMBacbA+e+ssjLOMy7rP25tJjpoq5f0ErDnBSkwngD80puZpG5Rx3Yv0bOW+b0DRTDIdI5toXZBpgOXXMyiBhJB3WYg+llS0TbF62SSRUQ+bRgyWgQZakRwGzbtpU3ge3kj+HuEUvEd/UVfrsildY/d+5FygTduZBGJUi6EdeHk6hG6noI/NGQBrWGbAT8dhnV1UPmYiZjuWz6xHE9dCv94CrzpP/1iLO7qW1WkmfQatdHHHXvZJTGD5AtKnTvrsKQZoGaGpi/80Y5DPeYbrWwpAx53/NABzivE48a29DSo2j/f/JhbVrALWYOhgyDYJzFxGM2tGic0QsLJEp3s36+h6yNoxmwkl7yIXuYM4QTSWAENjKM0sFXB2Qy3ocYM2VQZlMoV5OqCAj6UBMZ6KUWhhhKNqAisEg8wyzLd6TTG+C14+ImP3eQvI5SDwl4CvjRW39bTO4GSYau8gw5oCsOYwNycTE/FTLe3j50O+6LNR88Xj9yf2cYAVNP5MgMU97sTp3t5wEvTkRd9+1p5zmvOc4pJCxNTRz3OOUwIWT9VDLCmpx1z8GVjZ6YZiybvTXOotrg/8NtgGIrjlJRsyAEvueCxWBEJmwDLrkVeRUotGP4UaQADP5pBEekWg+1ht4Se2FlfOvT5MQjOc/ucMXvLQSez3awzTmClcg9HpEPshacELmDygeP8kCJSDNX0feB3R9pm1EWQZzNkcAQi/AIvTGDbgRaS98wAagHt8I8TDx8N1Dos8o2BY00E5kuDWAGv1HFg1oU6aaCdN1FVnXEZnzrboaGNzDelmW9gGLfdzT3vhQX+BXpvD9nep87HT/jUdx2rO+tyspXXHgxO+MuuzjnlcUw8Qq3h96iGP+7em6Gc4n5ef+60jBnVqYcqcB3iNAFxh9mHhzgE2SXAnJvC1eRkh7SYCKwEsU6TH4PURQhQw87B4ZwSRcS9AFd5Aee7mSgcKFdRGFcELfwsa1zHb4nqz4K1rHJYyG4fZGmAKgZ1AqDNIDG9xXjUqP4y5agiSi+i6CEwclvDw9XQuX6seT3v2ng5Vz6K+lbwBCGMI0xXPIrYA2SNmWCcC1oKXy+kZZ52Ex82yk8BwvRlqUbADTmfW0Zacs7c7x552xvCHdHwft29encuk7l1/Z/HHeC/bK9Yb6piTyRaqHqUIAqzHOe18SRfVm4PZjDjtUetm03uGv/hbR3UT8mJBSACdbPFee7qygFz/RtMGilOk9dDjNeWCtOhezcLpVLFaaYy5yJfcDEDPL/dF+cbmGnBgqgh05opumUdMWJh2BGT8Z5S1sfaz48A8mQfIZcSt0XTUBsKQg3HTZs0YF8Ig4v4698m4xgiiTQGxBKe8WYTY7nFZD7A8UTqaVFz4eSd5XGAzj67R4jH7WQIqtMvPe90VVJYwrPMAi4Gkf93V63caBFnx3s61ayBM77t74eLnF9zVfsuy645rXvmZVZe3iv1Wx4LHPHlaT23+kzotXMEv/hZc+fYUgikpIFQpN5qlU3ryxH8MHvh3MpmUrTFcizD3MhOBWtwSiav5N5mW0ajlBopJaMFmcyrrRDIt9ZQMnBa6LYlqvGXK8voACDPFPMm0De8n7h9BrlOEb7QwCLA3TWHdM5gXbN0pgU/zRcxxGiZzOKSTR1zrywAKrSwBsc1lMKsYp3xcA5bnJe/fm8XJDCvufRXDOu/Cx1X1M+w7nrkzLlDNpuWm35liwfoMZUkogUbYT+9sF74UCJPD4sxgqEnM/3YWfkyqhTFvk23ZjeQInMpWekBTgapWHVh/SBb0vTRp81Gq0dSbh1ncXjirF/ySNB4AFsw0VB5APBBZCFJtBjALpV9ZeM6My68XViaA+WcTDGZTpPgAIMIbRyF7MlFOYXqmXKy4LjAZ4AQWdWhoY4BhsBGzqs5nkxdR19aeodKBIn0oNCdzpY4JmfZfmpvhMCijcawnDbS0tKhiEXUjAGBjVpWYUV7H2FWw7TFHpjHBHg1w7ABW3AcTwc1fYimvwbCWaRPmeDYL15+ISyfPMmA5r+l2EmB5OzvrpS/s9mlMeh6PU53iBwhYsTeuiNny7tlYizfZfP3ZDOuGDTZGkT8n5ualsd5IdMCqMjfNQ+fhiWMEJVnmwOB+Equv80/6JeZdA7d5+ZXfWczN49sY7b48jsiCO2KwoV8NEJ81RRyXtC4AFknKSICF0aDwPpVL3+aiQY9iM8CCx5KmRWALkb6WtEmlYHCNeH0yaWJ3B9hjXkmXi5QaUa0FPgvzU/gm4BSIylNIGIz4L4J4kampZy7dTU9bs03XitIz3dlCFsuE6ZbM3d+ImJ0TzE+uVwBYeAmPnUordrfzlRkJ2rrq2GYrZ2YUxwGtXSHrLaCl7zoRsLzln1JducaA1TfHpI8su6aog8TZFpM6AKFONa7ZMCE96fuhE3H8BlQJCI/bJNIlLQJWgFUGGONOmh+ZVdkUEvvTE9Q/6URhEmbA+lu/O2QMEBcaAGg2KPPhrMwhmEc9KpmBifVW0VokBLFbHR3HRD+BA8MMmAYjz51NyynE8BqR3vJXwbT8hXNoH0i0EmAxGtEsBRNsdxzvCWaoRxCbCOMyZfZWITw/Yz9rMOSx6nHJXLQXFPpbuy4BFeBVXD6IJS8WwMREb8RdaQcgAE0B7lGJgU8HwIgj1FJgA57TaUDnAKycRnGWhf9XBFjnNdnyrFlY/P3UklXgcMx4VUbRAxWXBznGBF+mFZ0EWJ3dlhNR3poOk6oTN8Aq7ewVvjJ19+2Fm1rX4M8uv/d6t2ZGndsP04K7vnZmgZo5Y0CRgSmZItls09Pwe1uSfga6f+W/Qs6aEo3h3RwfDcpsPGMFAefn+f1YrlxMKS2m7r/BXrBY4SMsALyqLGkMxnTTF4IMCwWi2B2ch6RVc/0rYsH3msVUsz6bkmB/WOxVOwvYAFuChzNVZnBoBEAYQEDT19pUPEcwJYZAjBCwOQsg6T672XxQQw+qScxxCqcD8ijj0U8RQ0VzMR8D7G3aKXjIYJ/hiKk5xGiK8xbA1gprWMVUzpLD173YmHm9lJX0nu7dnR4VK1uJj3qxn4e15avosEOv2CwEn5JdVTDs628aa07BJYC1AEq9+6ugxOOHgzzWu5JO4UmiCyh2z3hfYlsW5TsmRWVZmXl5VSazw+c9BmwzYElQ7gx0yJEt8TgZfEmE7nrybD5mr5oThKvJY9YT//6rvzcim1JcA6KsZQ4eDVR9wbWocMyNKJJFPSkBaGV0pkIANnO7AFuOI0MLmk7DUSfzEpDQ1AyTkFqPp/GK+atcwLj0CD9w5QSRGMWTEbiZWNx+tibGRxrvwWsu1DccQ7/rVoagaVhF+IjyhFOCtpwYJM1EhnjggmA+prkSpvLCKqFnVXO9ze1whKxtEuou6yyqu2Z9WKfFEzOsFeL4eTWsvPj7ONk3Y9pdxU9t9z4xXquahn1h/Ixg1bluH6PrDfPE9lsXAMv3Zww1KHkCuPpjMCnF8iguyHTfQKZztYneJlwrpavPGOSSVlFf7z2AZcCVEKv92IDLnqJs6mm/aIyp83N40exgMGj1Aav/+X/97yJDMBjWYFC2YcqANeA7osHrZxhbFRoOzcVmumYRmSGTy6YDNJw01QAmoxlYkgCQ4VOOrcKiTyWR7UXkZ8IUNMuxOJ8TrQv0s3iWVQivYBPxVzEfbFLi8/4eJIdDGzM91zwnGEOG/EO5+iJwQfFnYGT00AsyJeiTQXYnBMzHVV9rmIQJWDrahxfRaYGqjx7HedvOc2wtoO7X6oE4V+R5wpX1r9gGwvJP1ERyTYk2M+LtHfkiAVRjU43hEHwoehqQ4oguDxLMiizuxO+mSbX3dnWqqnNVU3JhxzhmmJKCFaZds5ITOAUgmSl1WBQDPxsbaz/LpDTQ9d+DRfRv/o/bjLI2SG8jHAC/h2Cez1OmMuV8vxKYF/PllvmUOABRvYHL12RAGSsyXnHeEKur+NwbOQFWq3oQoecVnPR2VZAwuMiklrDv+/E90Ds6dsxWc0DARPOX2ZgvWYwMaT+TMh6NlVCN26C3EOk0IdwzuFbzsDpPCGLJYcP3JhOV99bm5ZqAFZeaefox9H79RRuLsR43Vv61Mtl+oIDlATgrk1oNWJ2QATOXOlvaD/EnAVHMRoOIdNWoV0RA8u/55/g7Y3NsDrbJIUbh93R/NsPOoNV0qi77Omk+LB/JLnPKoGWW1FiXgaiVaiF4RC105s71vp1P13/93/qfLsgzFaxok0whfrHHKm5oGHl4taIBi+tJJPY1coECePI06UkTGENcL026CPSkHO4GFxa5WcROlMYmo6LrexE8KEiVQYBBng18LCvgc0xBSixpQn7Z6lTZwVCZXkw6xaFFJYlOAUFeDTcFaF8jB4WGWA8dsGagMG5jSI9qZX2475GyA/DGCg1hcQ3mU+US5o3ckazdF9dbmF5sWchcwI0VM1gX8oPNsVs8ddx+xzuX03jq7FrhXVt3OWqn65LUxaWazbssfPdgqgZ64j3WEaQzyXTJAGTTwGkcWhTKbxPgiPpndiVTQCDFMiScQI15+HN8R4jrBjetqQRadWvvjVVXqOr80bOtmoC1dnpEkId+aMBR7p/ZkxY/f49/M2gZrJSCo0Rg/AvQ+Pf//vVNyo+/5XvhUwzwY+Kw3IW9uaFF6ZfHOHaK3obpnUUHasoRmc5aUqn++3Q2UTiBz2nzndcRYQTc4AUUnA/xm81FXPOUGqWeC7yJbW0bsPy8WtCsTUzFSsnsF7hp3qJwn4SqiICPhzacYkxl2mq8lqw6MikAtOu3a0SYxMSk7Kgiwfk3Y2wca4fNZ9Hmq4f6Jy3DY/9et0PT22thPq6a7Oc9djzshW3KmtR5RfRERW0bVBOyHbtj4mX63TP3ql4QXkNPpCyeC3wSCMHjhJ2NFSoFTEzIzb+HXmGgs7hczbu8q8XE7bezEijEDPU99BliHAeeoLDN6tqR6YrrnCYAbUuL9+p4nroIEhMz8KAtFyY4vwEW/lfMh2wmwEgxVA3gfvX3XxSxUXLQo8VXBamqASoUgOEHoc/XxQ24UABRi7kKkGumVMvZy7Pa+YcNFEuZwkMHwKD3UCachXOWZw4AybFZuba6ANVhCx2YrPflY/Bf/ieqOVCkj9CL5AAzGZkNw3tovTmcDAKsFgbie2wQ09bErIdmmAMQ7UlqvfGFN1WhEtew4mgHTjvmo3ZqKbPrMbVVgMgjLHj/zgNaBqxuHlwdZIuEZ772xOD6YkY86P4O3h5w05yyHW+mxM+5xK3NPy54i6UqMJfFU4JWgJmZGP/tMaxKD2xKRTUC3ALbXvHf2NfJTgZ0jwsAkg4VgNV5nvg7IqcBWoz+1lIh45scldnkiC51LFYCbARX4me8bvOkgWoyuSL0QYwktepKTIs9Aeu16pptkv3H/+SlnYUss7KBYqfCAhZskjPUDUfmqViSmWYwm2CFDYIFIHZYGPTItgio0HIEPw6wzJqZqyRkICQb7lV4kcYU9bgYpR7J1SHEZ9akJ6px0+YVV7tk2RI80+tkVPh94jzG+GyvSYb6K2rysK59TwJiJBcpKcZN5X0U2tDrmhNwHcCyaK6sxbqq1yzfYQ6BOONxzTQqS1l1/LWuMt50DLuqqOEg07OCbZo9UQmyPR8HazbAzXFRHZE8TLcMVrWmdgKrDE6oGIkKlvk1aAMCtOb5kxmOOTKMSgODMh6NWJN8ON4oo41xGY821PwzwGiIfDqID6k5Rw0jqDt1N4u/anMAko2tAs8TQCt4gszZySFBS2EWSa0I3Yb3EotyQlCb0tw5mk4Kf5/N63czeZu4rHsQQEGsbmAlpvWf/fHt1fxqwKIgCpuOdWpAdI84JTYWRW5dBfbGhPT+FtG+bIZmCSUHkvq9kK89HKp53pP3o1mD7l9A2oC2lMn0KLUFk2xgVpYZVtRi7jA5Akrcl8GRd8Sp3eq/k/mh0sJRt2wOzVCzwRgLbVHQ92TAKigXj1weRY+9Tq2tkefuMCxd+TUArKVGa2cCngZWurtzX2H0vZnFnebI/w8BFjufaNLmL2tODtb0xKlevSqaN02KjKOyJIvqXRaFhQPBczadVLAyi4uNTZpNYkZkR0i1CPEXrm3mzm1sluFoXBci5weuAaCC7xwOEfOnA7pcZQKuDmBtArDGDBKsexzecXRY5lM1d9C1ivlWj1Sa8DRzo78e2RcWK6KqwUggNON3g1r6tzL9uH+ahAFev/XR11ZmRiCvDAC5hC00oD1NvccNQ3Wdqm2OzaLFGuaYIlkJdly0foWhB3X0AZ1pHjFM2SCCSWgAqYX2rA0FaPEcvCY1d6jzIExdMTbXmY+tg3t0RKxyvKsyXecwwZAaVSsp7Wvr9pfSs+uRKB011ePSfWiMBoNxgVJlC4J1uHhJ/SYU/58ArOWmm0bkHGZnh64nWDl3orScuHrsva8kelchM+i6xPOsN8XPKTbGwrhF8WoycfECtJD2wBR7PmxMcADSxngU3+OyASYV39agPDlI10cblbbzfFj4k0mZHh6UGb4rg9PYVzM1x3TFbNXfYuJtbhKwAIZSlmj4EQSRQIwvAmqYRu3nUTXfuuzIwDYo8/G4zEdjFqNDbt3R0VE5ODgoBwf75WB/vxxNwMbsVAgRHSbjcFj+7t0/XCPXtZgxGmLZZArhuZMXUgzPcUs2o9xsoj3t2Cai8oHYBlhIA6i+WUSIqQGcuDYkU4MR6qh6rE10p9cQx489MTMhXXsLEvV14XqPjpTK04DMzAz3DknB19pqfOkR6kSWthrYyJzMYRB4H8apgVuANcogp1XhYwKefH++Vt4PgKvLsMI08eLnu0+pOa00CS1i91ftKX9fCSxnYVjp3JxT5h/xemWbx13jclOxTUD9XVn/7avqVks9dPbiWYtqnjybd1njYYE4f4fmhrMBoMajIQGpARPMvhCdw2mp28zaFwAPplcpM0xmmiNmcQIsghVNt+ZdVDR+mIEJpLzYBdoxXuNxAyxvwbMJEEaroGbOtJAEAWoI5NadXEWh6lDDMtzYKMOtzTIYb9VSMTSPjw7L9PCQ8UJH02k5mkzL4dGE/9KknM3Kf/+Fd4fHTvfs6abHh/+kBOjBJOkv0nyymZX1LQvfxA0eLErWJDA062rsS2uGTURRRbQ3h3BPzrPzeasoX4vxCRR5LTEFfXw8Y6bl0AGszcZOCYGRPHm8VgJGi5mSttg8+nyEdJooHzB7jOlMCC9jzQmITXTKzkOt6Wx3kUi/bODdb6RqhrJABU4BKssW/rU4btsWYuB7QFoZ1imuNb81m2x6RsHYTgKremH8obtTxg4awO9hzR49LXjt9t1/EwhRbG5Cus0cMyxPHJp5FL8HBa50gFUFqjD1GD2TQhkITD2zCVoQ2RrehwJzUfRN5iiY26TMjo5oupnra7h6EyeFNjSwivGCjkUNCwwLn4UbDFUOQhfrPN6Ir4qFR32mgq5YI3/HN0zZ8biMNjfLaGu7jKDBjRS8OICZBNYZAj8ACgzskN8Arkn5Lz/9ts4zpBkYAnTWmWReqewMxiWL4W2qumZVu5nMfMBgVn2ZzelZid24Imi7DnsNW035LPSn7bESD2+UuC+3NDSTw/t1HgFcft3X49fyWBgQvWlm/ayarMGh+0yyKtpp/TUDVGEaVVLoiu5J5DwzYPUF5hgy10M6s6ctPdalgBgTPjDmjJBVyak2lWWDkFfR4t+rR2XJZ2PYw2RSFDAnT2VHXR0qi+UAq6rFzEJoDnMPV4RJtrm5Wba2tsr25mbZHA/LRoBWncCh5yDRFiYSzaL0LdAKUGQNcmXdUxQPYOG4AswAVASW1PEkDU1nlDpj0XMuOCaAgyPArqa9H2JoX/mYOYFZDChYWHgoDVxDgBbAa6SOygA21GuCQG6NTqadAjYB1L/6wVfJpZ5qV2lBLosnaqaiWUsOL+gwpbSZZSZl9uCQBtfcshyg98rz2JiGBseCty9Vry7RwXjuNoJmi7WFfQCUytcoX9IgJBBTCZhlX74XA5H/tWPAvyOpG6H7FcB6DNznMxNk4GiOCIBcQNF9GnFYZEFnXer5cxay0xTrmJi8jPOdKNHb9ozOf/3mQ92rW3WtmT01RrZIMvQ+ueJD43HQ5oIeJcAwQAG0smjM3S20Ci6+8ahswtwbj9sipDs4IteDOYFFAJxgymFR8md61CJsoBPSoElfp0JlL+ENCpBlDJb13LXAKkApPleF+QpMNulbwKlZrva5iO3h5Un4zzOpa/JIRwHbqswr6kUBsAAKZGLpG70E8Zm//aE7klbVTEDrWMuAKbOmpu3kBZfqSxHzkdKDWlkS66s80Ouuk1lNt6xLmElsK5+B1EBDyO0wRc3LnFSudBnraAZINLAwizL4wnegcA6Z48s25gZcASzD3BcRgIdQj26tMTHr7NjQZCDvXDCgwIxRKbhTDyvA5nxwEqv3ODZyVsBK19ez55czotPfSJPI/dnVgNXBdwcVxsf6njJ5tJKQXkMLwvyyGZbYlMISxHb0YAsjfmHmbVQOgwMAACAASURBVG6My+Z4g+I5GxkEKxTYHVFMNZuqTCoAjNfh6+1VA23JwdI87M530wNvENmCXhgpm9MdE7npoyJUpvp5ownh3qDk9+HGg+nps1TT5VDo9cnrXl9OyZG24pCGZj4G49rYYB7cf/Lh1/AQVYuqU04A1ImDStOrAhkrPZSCBJIGZA2wMghRrEcPvuAMFKuhS4W5m01NAnAFNGlEiM3y3m3aYQMkbTkiItF1xrtMNcVEMBUKoTuk2d+uXSCFP9LpGRqkn1/u8K75PS0E/1o0xpomvKY6FwuNxmbXJW6al7qMbEa7x/RaBfzaEu7YrUtNptMCRB02fbBqR21g1jniaWC2C0hnB05feSfJQr77umMKGAxUi8K52VSHSYENgQVNm6ALNrW9MY7vzbKxIc8ert6ewQnMvKOjchj/4mcxKbCoCLYMlzcXf6SxKN5Ak9WidtUgDFixCjRaybSwgG6U6D0sTmqbeTFgTcPITKpBvz6TzRp4KkdlMN7gN+MHcT+TaSlHBxLp4/zCScd+9S6m1tmSQSkdDCxsTJGemtd4o/zGp97U+aDmlgJCDVg2kRrwqrqDRXpVvWiHMUhlE8aAIK3I3sdWwnjJgqihEFVfcjdkMngwoPgUwS0zLNVlJ4jksSUL1Tl9b4oBM9sFj4anGZVhljSb4K7X+ijGCNFJ4+BQ35+BLo+BoieyqRrMsRdVbwZKcF6nvEywyRoTkzjhOniy3ns6jKmlrJzbfOyusXObvXXBRbXGulg0e8Pb1oDKrKqGIESMFHa0boyQzDTRcS2mzY2NsrGxUTbHCD+QkK6GxDLlzJyoSSVdisdxRHhawPTeOJQgTCCW9mBTjtS2KldCCIDqE9pmMxqJ4jEHGzLjA7hQ77KLvoaeGGeCC3RXeFiDClgsGwKrwWhD0IRNAEB8uF/K5DB8/Am2KmlLQOg9MF0mq23i2Ig1GyPebFR+53NvCnYQn+Umiqiuxq7MstyVieyKHrLW0syaj02o1tgiIuGhmUV1UDMpXVpoh9Zv4jKy2F11yY7qEoDSr83FY4YZV7OO9UFWUwDLq226PIdVAbXeZwTtuiN0NXur7cat0yPbejkHDXd9rYWdIFqNCdxa5dMs9hucfc61AIu7miexz9oM2fUA6bh3dRTNaxBakc9l28UPN4DlLBedPRw5TME7gET0lgdX46hgplmvqtHZ0JKkUZEBBVhhkkAU3tzcKjs722VrE4xqowyQBAsN6vCgHB0eiknh38NDmX/TDHjp7mqVgmEZMnId7n4HggZxB5hgZ410Ek3xXOYlHS+Ze1VjEorIdY64qmhYwDRcOAeOIrYqdvI8jvYDdQAwW4kArK0tARY8iiHCcyM42GOgKcq8LPt8Nosas2jIxTm9sVkGm1vyVg6H5fc+/8bKkGk+YlSi6SjuDyBTGWjoiVzYoVPmeeVzZpE961UGhRzZzqi0Wqwv0pUifg3nyCACwxCeXB1f9paiz+VE8JcWPX5zkKfsMXSIZpI46m7RA6y4N4JmfN6AgQJ+istK7cMQOhHdr20d8f4obnYbdoRdSlFfjE7XqgKGkbSOzjwhV+Rr74zZOgwrOPQyJex80esGETe0XADDhtqnAxjvjiT/i+6dZHase9w8aNll5GhrgVXEMpHdtLAEM6fMqARWAhl8ltrUeFx2trfLNoBqe6fqKAC0o4P9cri/Vw52d8vhgUDLqSkCxrrBNa9ZzqWj0AzzZ1MBeEp6k9JAwMKib+3Pmvmf4pZ7LKhyGp+bpttYpht3ufD8IXodwEJtpLOke4y3p2cRLIZlsL2j46Y0EAbWHu4zHkzX3jmwTPMlHjMtqLhypghtlrKxRQ8W1urv3f0G/rEfpsCa7iEU1UoQoS/SsxfqDhYgFh3E/WrKsOKmAkwBeI7uHI2b58/jjcJ3SvpVVCY3xsG8TKJYoPaGiAVjDqjio+rSifPnejZiZAreVFfoEMbZYkyjUc9PNtZCGgyeNdQgU+1UyyoL9WyDFiDYjt3OU72Q1NUasBnYUQXCrMvgZpa4JsM6Jrr8PFpWZT9LtKQKKqdRqHrwYwVy0eUQM7Y3yXsf7zCqfJ9RIskahqsgELyYEmMPXBPUMVnsnQNYUZwMlzE8fRTRYf5BS9mQnmKT7/DosBzuC7AO9/bKBMnBEwFdjllxKRXv3GYC/NeABYbFzOXYbStgHVXTqu4jaRm0H5t6t2AWhulGluUxxzVCa4qUG2lmPdA6ZtcgYG1tlwGvu5VFYTjIwX4AYWZYRqPVgGWOxTZUACsClja3//Zzr+8u4tjzUMDPpo3HFWlwuZwwFxyrOEgPxBfNPdRqZ9NUBVB6fAF8SB+ypkagnKpVA4Eqkomxbc+iHLMBi+/FUE67MWBgg5EQ1B5ZmFyu/CDAjW41DuV17iH1txSDVT3yUV4mL1UCVpiXdcNUorUSt5sH0F7ODI6cepbLgq1yo0c7s17CNJgclIXzAZajY/P2vi5l4ZXHfxYEkphSFbSWANo651kePNN242PAtiNOpnMZIPhYYvHVKPMIQ0Aen009syqDj9kW7gggtb25US5ubfFnCOmYqPD+TObzsr9/yJSSw0N9wxxEpHZdOAxtSRUSQndQAm6qf+6fI5mZWlaMOTUs7OTTIwZWmqksjnjfm+dnFIODPQ3pNmBXDAZNNjgSms2ylox5ttbrtHCkCBbX5rZMt9CwpOFNy3w/NKwk7Cc47WxKsmT111gj+jvACnmNrLAwKL/36bvIrqgvkdWpiM4Ruz+3Gk+K3+p2huHxQs+q41c7FzddNnvWGC6Q5hc5h2rXJdamTImKCX521KG6d8waU16XrqEV3ju3GfORMWxsRZaeiX6U5qX8RHFHzqe6F7R6an5vawgb74KZF8xNUfFicdpkEaFv7cwdgwRw3PA5f+gTNWbLacDA0XXbfMXDaGN7DbSmHzjDOi7vsE3gPvatBKsUS+VUg6ZTdWOmMlDR9IPHLlIhNsejsoNAz00J6ohMt7cP2tThdFoOp7NydCRWxshzlF2JgE1PhApMtb6TUm5kBbeql97VmGyMRWiT0IsYHkkkHGfvjJdHZUOJFiWWUE0xshUJ2AIWTVxqVJODMiPLUlKzQam/ALvPIbYGssM47ngjmoxOlXN4GNH2Edvlz+cFWHlWnMzApZi4QSm4XoAWi9oNyu/8uao1tJxBlRfGMyBLiHQULj5YV2AG0HXqyROAMyduVobjIZmUujZbJ+pnRehzbt5OXcugjeNEtyCzFj269EzC7iNzIjmLEjI0R6NGl5O54x4IWDSzm8c2daLvHN+VOnxOgZAAqG8+Q5PKXwSihMq8B84MRfo3+UGMdTbXHJXpGvPIKs9agJXBKhBXW9X5gzWX6mPXStBvft7eWjAP7UNVmwTLzMFuiEK3CJ7TW2pQJnLToFMhXig8cDAJtjYRnrBBsBqHdgdAOzw8KgeHB+UAQjrMR5Z/SfFSZD/TMvSkd0BnpKl4BxSzikBL8xy79PEZiuLSDbjo7MUDGPY6uNQ9Xas87VXdfHzF9gwkjBMANmPpRVzV0X6ZTRCCgJI0ye/rDeuYUGKFD8V1A7C4ihWHlb2Pujh7HDuhr9LS0qPW9IqYHzgI7IEcDMrvfurOGgtVgR5iO2tdhfkTpjxb68XQsJ2VkTh+rBtfsCMlSrvig7Wo7oKNAp48Qi1RjTCBWpqoBWSSdXQqIYQJRtlLlSoAJuiOo6UqYGLgbFT7BJNhxHtin51NKN1L1c5iHADC/dc4HAxrb4yKcy36DXYALyWT+/EoQFX5qwqvMGD53xMZVtKQKgAkdnK8DLSICMteWeIlFApfg69lZmFNFcprsN1IH6ysFVU2FbWkyIro/ZOXr0aUE6z0jXghRKQjZebShe2yg1AFthwv9O7By7e3t0fTb/9AlQQ4EUJ3qkXoOB7KyK8VDKINlMGnLTCvnRzZHCDmxR+fnSPhuKbZdMe7282k246qPRtvfRFZjjpX9LrFLgunwuE+WRZMz+B97UTpISe/ZIaXak6w/jdXBPIC+xMvzL0OI+y/FuagFyd3/qGEfbDCwaD8zmdeE1U+QbparScDYhWnAQRmCGFK6zlIvHdCMZlEEH0bpNCS3NlGwKTMBD+/+vRcB121HQQ+0S1aw9DGILOUDNB8PUrw5KeL1+kX7ph+PKqrHneOz8qgXXRUcnx07emwvZza4+dLr6SAsaUvNbA28BGwov5VvkeZvp3A0QRMCziRQatC7jH7om78+Biq3t+rjnUtY7Cc25ihL9sGMQ17Sbq6+kijib/1K3VaWIdHhOZeiOpOgQElh+dva2OjbG9t8F8EfLJBJky+Q+lTBwcKTaimn8E0ajQ5Oht3UMGqr085EFIzvpHWDsPyQ9VuZy1VE8HewWauJShvG0ctjdwebWdTIcuSl5D5h6FJlKnCGtxKtCtZNsOn7qY9UYtXFWau2dGyzawSQdZ7CzakVVUJoptzcvpnVsFdvZT/4u7X94BDV2VA8MJi8rBjj2ojCCc723vXTCNmK8Rx8KwRuuJjqvRKMJJ6n6qpxYR4uv+xIQiwaspMjvJPa3ZchXBt+mq9pfvj71Era8KigmKs1QSubbiaN5IeWeQYJp7KsUt9CjNg2Wnp1zAjaQ5H1VeX7874kMM1NODx0OO+tHlCx0JewFqePt9uf2dbxYNOCVi+vs4OeV6OFdfQP0xyEpA99e4/g1VjVal6gtNnQmTPScQWxDdGMP82y86WtCrH6hwdHJaD/YOyt7cbYrrKATMkwgvD4jmCO12T3N1YEljpma4yAb1Pt2lRh8GgxreknED/nreapIl5nsAsjRUWYJZ2epqqUfoYb8LiCOdJO39nr6/BzumwsZN4tqb3+1RxsB62qbIExi00KaaZuGRNZVY+vFOB8K/0qd+8+/VaL1EiJbO+akbbg0Ws1QXZXGRRPdc0i3FmU4U0pmYl3tYNWHVLSVaByw6rxoTircyarKdlXYvXEmCcmQwiMpo2i00L1y0QixaCeg4ARP4gb580pKhW5k0gdgaunRDusytj1cpXOpiuPwfCZrNS1kw81Q4bi82U9bDW1oz6YNVFwTwN6895A136hnVfbDPVAh5va9klLT1kHkZ9SOuoe4CWoOygPYQpRFKyo9SZOqM4qgxWmHjI84Pn79LODv+F+Yf982g6KwdHE5p/+3u75WBvr0yPkA/Xdld5/FzzyR1foomCWVRlUMncyzqWmtnJbErrPf9cF0YMXsbz4CXCIxwBeheTiLUQAUAoj1yffA842oxI9Zdq0m3/zRGdHVqeqzXUzbXhYn2iKx83d3wkW26Et3JTnjU4FI4OyvwQAabdci79zQq//+ZnX9f0Pbvn0a5qHOZo0mbArBGKwuBSrnEVIXRNKTOZwO0Q85U7yNpZjMNCMGq7LoFRt845AYVR4U1rUnWHKC8Dbcy9BOdDlSimI9hPE+ymsN6XPXV6Tji/AjnJGN0D0XFeie0x/CLWct4zpDUhFA7VO1iELYJZm76lNVZpE8M7IKUwrIPaafuCE8BldLL5yEBYanO1rimx9hQAsAwV0q141mXAWovJrQKwPHvbYghR45TXLYxeJqzjNXlYXPfcZVdUdpimXwIqaE5qGKkwBXj/AFTwBOILD+ZgOmOhuAMK64cM+py6smbsOFmXUk6fS6bEv2HecRI6x09bu3QTev+in5yTgll3PXamZiUtuNHztlOFdnaaGWrxU6hnG2KJ3YhcZ7pK0PTevqVl0sBJU1XXXQGHEdbNa6lwsGkpGJcAxDW2wwRkii1TCESk8UTeIUs5Iyqex26QF0Qh16Yov/GZ10RcsBKMzQYYBhX9Cs26lCYVphNDHrAIg+Hk7tpca2EWhUjO4yIYdDgKx4zEcIZF1A7JaieP5wDPn+erS9H45nNqj0C4LboKUDXXseUOUnBnzJUkR1mYTWdyPiCPCfO0Ep+24ctsNXMQqDLOL+Yd4SUqZWhaCjSVstQA2PeCwFYxt5i39o7GcZZ0zTkPaGXA6oUUhFmwCo5Ofj12ULnA0tsjWXZNptVocZq4ufRLbXYQ9amCSXWj1FVTyjFV0qrG5eLONj2AMAcBVPL8HZb9ybQcsA5VS0YmA8pev2BJNVQhM6qchJz1KpouiC4HC5JuREDjzEAqj2Kr7GxZxrgMCnl/4eCSWaFy5zZTemgiYZwA0MjhcxhE3TsCpvKjiadksPJDY1AkzDbk8EGkZ/Q1YnBw7AOl8nBinzwr+A48SiwSjMEWouKRxtPqr8OxMN/fVSxYijXLR/ei+81Pv1rcI4IrdRESxe0AMTNDOAqfY4QO4D5BmuiTdJIGEc1daEK3jv6BvHQeXtUcFLWuelRa0NE5ZqDoee5PtbzLvMwiONPXY5jK9cL8fq53BJW6bRjnX9tAADIORuYcrNuRjT0FKRvAOc9QiqbDc3zTCq/B+7HJYwxdn5Sb+FRlmds61r0JzNQMxPdkKaXqYde8zVddAd1YjPXNzhWTtK623nHNCtdgb0v1KovqAKoQ2t1RhlUUIoVGph88gUo0pu4wL2VrDKDaKhe2t8SqIql1b3+/7NPzd1CO5opodn6XWdIQZgF25cyoehpV1wMYTCWzJYrcqI3uRaqpRlOTeXZgWVr8Zj4V8nsWGl83SoBVbW6W4ea26q4b0WAWA7Aih0/laNoz64NTfpp138cHNmG6bZfhxnZwx3BygAnldJt1UYsgCMC6IIBlaWdpJgyM3b8q0zBc7svACq/9FgEr4th87oE8wVyjCQg3I/2G3rvwgNkI0zHCYxh7rUGxKjDJxqrBqmj1zvw8MyVdKXUeXVldzIi+55ziAXUSi+F4Ds5RVGiDG+xG6IMOShDztcqqaHqc+HO0me+oLw6fGJaJU4lq3B6uc0QtjMeN8TpiEGjrpmMgzcvWKWbeLLIFxKMRZBf6Ep6HYSXQ7OcHxgnXE/iXgFalAEu23TXY23FgVU3AeKiOXBermpQJa0upxpQCQKfVA3hhSyYgyhHjc/T+QVRHKs3RIeuFz9g01K3TIygRk5/sR+ZkNQHjPgUwNge1MxtMMrDQFITZFk0K6vo2YCFZN6oN8IgBXBX/EyDo1LEswFK2kCa0rWRmazcQsY/2qQkNYGL5kfeA5VhyFAnNAEPUXW9fc4VAHAgQ1yTNseIiVgsMi/mSmWEhKh6ApcoOfd0yz7bf/MwdUY8q7ozaSQuOzBoQzERwETMDfCLa6Ym91NSU9uwsNuO9rvLEEs+1Fha0QswVJSNnrUOCtBYufp6GmUesitxQvQcbJ3SpETdXshRE7x8hTWjAjjSKjep6SnEd9GIHSNnc9bM3cPI+h8NyRMUd5adbjQn8jHxIb4+632GZDJEXqbSjI7dDo34WEB9j1fGYEs1CpK9ZNR3ACkp3qpmSH/eKEsn1LTbfLMItAaZVLx0HWAo0WXmwVWBloKJuFbFV0AwYXxWVFMisonwLQIs6xWBQLu1sl4vb2+XC9qYmz2RS9uj92+M361EhQh3mBWs5qUKCvgMU8OCW9JAzSyEx7wCYI9jjVh1GsLnFCpbUnDwKmCiILofpxiSsAMDApKWAVT8cUeubW2UEUAFg+ZGxFtVBKWBBMN2ygd4HvxVPBIsHpib1pjGCTP0FwIJADkA8WK5LZiTMjxyvA7RxXJiZY4Esva8wNQ9kEnYK/i25vt/+zO1s3kGdxQ4MNiFtMVzUxenBGtVE5VEI5WYkErSD/KiEQvxurzTMJFxy1nscftEqGhgkcliFdSB63ZQbHVxID4P1qCI0x5AnDUyMU364oYAlxtAMDi9NAm94XJjG4FmRaI0zsaVZHAfxWWobK4iiNzM6+hjYBM41NVJzhkUDQwtLz8GamGuO1dAPh4U0hnU6LWj5XAxaGnR44T1rMKGVqHMGhrVMr/IEaMJ6qwTKap1RBqZfa2p6dMRBZu7f9hbFdeT+YRYw6HN/v+yCVcEERBpNpC5wJ4tkZpoqUTlSlREkitusytoDP5dMPxV9tFFQaY2AEIyCgBglczlDpAcRrEIPMmvzhPERG84k8w5mIK4bjIXlYqITCnWmZhJ2AKvz8JZwrIaSBBYyLKTFxKrhxoKEZoAW6lydIniYUx+DxOoLyj3kF8vbHDbdLV9jqujgl3/nc7fLy+fUpggToImWPxsPhzhpM8phE/HcqumXS88EwJA7YA4wqTqi13Gw2krZZmGwoDQfsLkyFMaBtGa/wcBm89ZgQiaicodoONITqDy9AYv6ufO2bm4GvWwg+aKmeREFAVpcPdFzUcAngoQjqiIFG8tGoGoNA4lxQ2iFN2PeKmWY0PwEY3pnp/68XtN7aRLCx6qTno6DL4OWwNll4LJ26MRKyArPaKOburm6RXQ+uFRcz8GgoSnlZg8KVQhPIDUrmYHQg3DWnc0NAhX0KtYimk3L4YEi1fcYBHoQrdQVdVNDFMYbqkUVWhDvgFQ5iuYlIV1AFdBk8y17BbN+hZ/Z7BTHhzcvRHfMLLiL4coPT6EmT9OxwmnH62yvx3zxcUN0Z0JzeAnlcQNzg6C/uutL1zGSaViYR1GHCqDlL7IhVmCA1tTyDo+ZEe2z1nBY4iaSsMEMANhIvu7lSmru5MWiQ/0uAUsNKzC3wLZkcvWSlwEOZB8ygSDAq/xMN2+uXmCsCTGiSLlyXiKxFkGh00gBkrfQTI7XmdivGrTiC9H2+sJ7JXCH5w8Jxs42iA9XvSsEeHkFw9cbuxZsAm7aNHdtysoT7XADAghL36TJyDGTVqucDHv5XBlCYbY2qSneu9FJesDaeIZ0FGPMXV5GSeIMHJ0s8rKFGdI3t5bsnv3PVMEySKkU0DXmnt+z4hwLx10E2lXMaqGuuuOrWA5Gyctq0qDmm2ZZ8PpBq7ruwg4j1rHzOKXm6u7VqKhwxAetidZNn6HXJWqSExwoHkZci0sTJx1L06gt+T4z6uhQPjYEcjI46BAKD4C3TTUIumJ9DYbMrC0NN7cdKswjptkoTGCkxQ8zkECovbHjsO1uGWmt9p5lPfamTLhwjcubp1I0CJs4zZcXiBYRzGOZhNSsuOEITHIgaC3OU29jUP7rz9+uDtixgdP5yPSdWCaRi8e6VpExiYUt81HvycXzqgcvJVSv0tBaSII75bSlCdbTNLFIbEaH5JqArHIxSm1BgwtVQZCmFXFiUYAQ9yNiJebUaegaAr+vm3IHTeKNiNvSsPLv7kVoD1+0lUcTW5C66pEMEHcZad5/cBsAY71O61jQ86K2XIvADzmkJT8fpystA6zjdaj61+QJWW8CHg9YJx33eDMw9/rTw23hCvYCoj8dwEptrFBNAToVSsCw/Mtsxjgqsqr9fSYsq76VItWpUaVmn01Mj156HYZkdhP/5gj0+FkUPOtPPfbFIBfVu8oMi+EMThnRHixsSSBlYKzR8ss2Hbb4ish1hkuo5HGP54pZJIKdZ0wGCZ+i5kqyHI3MErEhB9OePpe0Lm/OOZsXsVHGrxk6ueAYbxat0Ofz8t989mVcQHhFwBXxQtLBI/Mgju94kRmYmEcT86pKVp1cPVXtdVJzq/CgvVzzUQCigFJ2iTHYsKJH5VPSogYRs0TwcJMK0Se17JKZRkDAESN6nwGuw0E5ApMym0zJ1tXbaGDirSE1R09SQjomEjx/MhEDxiSwhzbWQiDcAyM0clHHatBVRwZTgIblKNDMUfEYmw2Ge3S65hwPQHabrms2nnS01eB1EhB2d8l8nNVmoMRGe/+aFxCA1Y1WZ/LxZMLJiih1COswBRmxjniqA3gAEa2+rxxANovQA+l0ZOFCyF6+RY9fDgmQZhLzIGJR2jxQLJWXYWVY9uhxl9L5Gjtzyk3Tpap+ECzQLnJ9pgFEZ3viyeI7NEgHl/aBiE/G3iosBbyfwuoiZDUW12pz0RXuVKkUG7zeRucls4TF62R1bMgQyPKQxiOHCP86m5X/7hM3yyTEeJJTSJeFd01PIO4HH3eAJiWiuGDecgBNMDrqQoityhU+ISlMoi5UcvfzSYQjpobBEKzcaEL3QfZi8Tvk5xE8gGA2TuFJppk0SH3W68RgQ5nLIRG4/uhqg27YAqg52TtqtJnl0WrgULvtV/QxoEkIkzYzJ0XqI1m8H/ZisG7PeFAmWDcRD0nTPBg/TN616mHVVJiw5+OuTzOPTn5vVX5jwq1jPaajLmdWEg/5TYqpxOPKrGZRb8rNRcOzhwkDL+DlCztkVvgCMO3u7opZ7e6RhdnLQROQppn+BXBVs9BxVdXk00U796yK615TdDeP5Fnk4ie3LgM8LHsU471ZmG+CvSZR3fB9Xo8Vjh9sDMyJeXa9pqiV43boCA6kv3QNvFgE3ITHCjhFmoi7OB+11IvlRn7LHVshAjQpwcCZFt3i9Rw/1eq0wgKmjoZYsE1B0eyo/A8fuRza1TB0LOlc1Kuad4InGZNJtbgoL6x8BWY3KhscTCSbjhS+03J1J+moyw6WhXSVKjUn6cDR72ZnZDQAGJ8n2BAAZ4QIcqKPglC5tzHJMczFOj8KdTS+legmrCdYxXsEWvibvN5INWJcFY7tsPneM6LnkV3Jo91XiO21EKZlCEx3WKx2IITVgnWrIn4nlpfx6khT41oI6N2nqt865uP6ToCTBHYBlsAqm4DY4QA86jqjFBsIh0hYhicQUet4cjQB9/ejDAyaPhwGcYjSw45Sj0HvxlXZ25dioFI+oEe1sibUXceOz1iimMwQ0eGlRExVLSCX4rJqbJXTduKoZik8Xyitw3EZQpeC2x+LDaYv9C565Wp49hJgWgUEYYIAqBmmMKYJSZOFUfGt5vpKQDoGYyrfjnrxOrai4nM9rNMcmwsPOkuEQCDoVsFEs/L3PnKRVyOGlfrnDcJBwpUukKIhCXbVO3lfazKQOVq9AR+E+vAUBhpAWGiddpr5SMCqOX5xwgA3LEdskgA3gE0ZIAxFz1IalkMdwBhnrGgLHwrfkjxywqc5q6tWZxbrtwAAIABJREFULulSypRDZF77mKxgKm4pAd0s0DFw4eTCeKEmPVge8y7jeeNeGdrBiH33JYjaatDOwkuscsvRRm19wFp4KtfGs8jnb7rtmbt+iMVqgb3lBFI4rA1KYfKZWQmsGBg6nTBxGebf5YsXGLWOZX54eFB29/bK7u5e6FUTJZ2yhtKItddbOk2I6dUVvjqOKjMrWxNkZTheeNA64jordsozpyEzOOm59IX52AE6UehcpGhnxRrpEKURDINqBofsQEN9Kjaj9QFgzr6BBV5QRplj8UdqBcI7IgiU8WA9hnI8F2pOa441whQYIBuAdR4wxHWADW7jeiNXkiLavPy9j24rCmBeygY2D65R7O5K1pXO5EXl8tRNg7Kpy3t1mEOYXAYQV9JUUw1BQ53HJC7JdOO5pPHh/JNIrcGxKVhHeg4S6ZEADT01d7hyRQc5EKUDVbMOnkncdkqKJluD6YqjTKMJBueXYrsyowz84msTeqPjibLXoTmIxmzMjtIAITdpVW4igah+sIVw2IM4HFoTHAnATgSspYASXLHGVa0/vTuT1B9biIoPdnWCV/E4b6BZlekyBk3VQBUICpBy41HGjwwG5fqLF2gKIi8QTAy1quAFRIwVUmxgQ9soGm6MBVZYqGECMrYqotezzmStqt6uY7H6QAOTEt6+ja1qphjY2H/P6TC1vEk3VqsCWQyyd0kjGnPstnZ07IheZygBQxV2owyLAHHdL+7fAD8HmQ6jPDK8WtNJmSEqHmEQyGs8xZGb6eYg1ggItS4DTRJgiJit0FrWvWaiOMB7+4JCINg0Qzzkf/moGBbWUO2FQ9aigGFelxdjn1olM8igEFyXMU9BeWqYJQCLzygV2JMjIMrRRBK+KxgQ3HK0e5iqCtR0QGgDizweDCa1pshL0b0oz6IBEWR4llh29dmYRPp8hHuAGcU5YfBzo41h0TFbLTkc2/mAeP5OF1Kohvy04F2JqlBfZGWKqB7BjWIuf/c1AKy1p0nvjY7+DUG3f5g1gkztem03q4FSxRx5MGoEeyqwB5Pu6BCgdcT3gVkhtgpmIMR1DBRACuI6NCvUWXcJEALIcFRGjH3aYBH/6gnEw0MFT7OgpB81thQgkzWr2GepgSFqHd/UVZpQT5Pt6IBmIQMqOyJ9sKwEVFVpyuiDZGNHgrsDDTv9TFKPv1Q6Zo1Hy7W7gfQgXPd2hBMEa5gBsA4EWGCHaxyvu8gUkzNAX0KCeKTx2HxC3iHitiaHpzs2AWtUhlsXowY9zGMhx//8EZ0Dpos4NvBpGjFJUQ0jXaQ3Tbvf3bcQ0eDVhEvRHwtztmeSTfMguYEpdTIhpYv64TewI1ZucCJzML+eZS/wGY5YzTbnQrK7Tu0fGNVJCM4mh3Yw4KLAsGI8av6t9DK+y0Aa9cAcrqBhDadDYtgeN1bA8AYc48qg2PjZhf1oToMYrMWwJPl3pxtHcH2daXGungBYOPYp021ynFVLYFYgHAahdkhmhU+1yoLph+Tl6y9ejMC3GT2AFNjRB/DwMGprx04CrSbam/PfHmAhwpzmTwiT9DQtSTyWfpzBK1qnQ18KwCJz8xbNmk4CLL+WGZvHtwNd+ZEx4h4Mq7XMkrIFJgTTDUnH0ZT0FFyIE4s1qAKwahZ+MCyk8RyoAsNpAYtLFOO9DXbVT+MpLBkz47EPkjKyHirOGWO2zWtHSg8rC8ym5fc/eb3c9Iy/0oOT10+7Sg3GxLVFTt5xZ6TWBcZgU87mfAS1cx1a2cYxIyySx6ypKzq/zTtBF8wrMA87WLS5AfDch6cCJq91prEMB5T6J0JzbwGqch6pcoY2/VYXXsX3mm6Kv3FeI8oFOu9gEs1Th2UYrcvyuEBIx63RtJxjDsPM1QbQehAKpmjHGG8CZ8CuaOyuBqzqK7JA0vUPVcCqsuh6MyXeRVMitKul2sYxDKu/S/EBcjfqxlkxYrcGg8oE5DdaZc1hVw9pBiIoFIXYwLzArK5e3VWVBYjrrssTCarK2RuxxTnNQXessds8AIvmYQ0KXW66tUq+mjQEKLAgmIVIXbGpjF2P6TCui94mTn/Q81guAIQByyVduOeoxdfMuXZpYa3zQKuADUYIc5NpPLFD87jdNJ51jtl5jxmW8w6rrVgCZAFYYFjpD72T5DERMGETm3MBYenAA6ak9avlU4+9QxphPO/qEWtO0o4W1zl2iMQc1pAzarhKXB5NIArk8zJi1hSMsli485ly8XrgtGzMuAagQXERK2gVphMKRRqwNCWVcZFThvE6q4fYE1hjq0JUxxWx0m2ACU0yND2CUwqAI4Gc1VXnEPrnqpfm517Ti8LUdHPXnkdVdf/bLOUajo2BqUFRQ4z3H2mPJzMs7/CVYfmqWqpC39G9zqTMofsRtNE+doIXcpFWN7CSazVSbOJf0HSDFcxA7KQoC4OA0Evb26q0MJ1RXIcJiH/ZQCJqZrv3XxXXAVKR0Dyi/mEAgVAJhiU20b67VRJaOELfc6ia6ARDMC27pwGC0K+CXa1iKp6gfmQLzwHsJ1z50m0QYIiKnIdldrhXOyifRmsyCwJLsZiv/LhZmcPzCsCKrtLrzIuF9+CmUimauirmUzVSxeYT4+3PGkQcvgI2fQAdkib+boSn7DL3cx9AhU5FhwesBLvxQ/9pq4oRfQidrN6/tlFEn7fXwxES6VVkZzBvOptAqyA7PArxPpg25vURqjTYodLBYD11a7L8mZqaW23pqcF0mkaVB7LBmCysCBqOAAV6Oo+vFSpUyST1QNRbW236KrBHXBbXb5hzBN0wgZX+E4GvYaLKngWoQfSHXizNCsck2KWkfTw7VHNQMcTGwBxVvz5gcRWkkpEnCOInT84eg/Pxw1uzasNcBVZuEgFvYG25FXFWCFkwYKG3HzSryzvb5fpLF7lLAJxg/l29erXs7alzDXdIp9nUKgs20QJYxhuFgGU9Ce5gLM6sYfVKunTBSmJlNg+p2bh/ICtQIjDlSHFYMfEbYMUkRkPPOuDHwA0mOExYhjUgxWgsDyGbnKI6QtQwOoPxxohxtviCJxLxXUg6Fhiq6ulyBnQcP6+RPyyhg2TpnfBSIVcS7C1MzZ5o40UNhgyAunrlhfLsM0/z+5lnnirPPvtMee6575fnn3+u7O3uklVPJocFCe7v/w8/U0cyhxdQ1ertFKNaMTNcMTUgV4dwVQU8kZoLV1nGrAynCovJGo5LzqTdu8zJoLoGDgEr0oDs5dNnZOox1CExK5zfXYAo0DMzA7GD8N7JAyqtCRoWGvrae2hwa1oT10bkUiJcAc8XkehUccjcmnMgm9C4ulqjC8wWKW5qL2QsZalmXYMVpxZGoTzMdeKw6taV593xU+1k1pUAq22NSRdbPP6xYBVVFqRXteh1gI/MQAnsMAOvsxk4HtPsQ4zV7tVdRrHj/WRWDgbN3ZRrOEEEio7gKUyAZcG9E+DZzMGqZznBOXSsmmRqTYviQItcV2WHACXv3jE5tdOqXAgDRldsJBUuQnCWyYP8wEiFMZs8eadZ8Q6lCJHmx07O6p61M+eqGbFkHsQZWn6geh4iBEFpPAIsxpBF+pFNPTClF55/rjz7zDPlySe+W76H7yefKM8992y5euUKQ1O0GalMyubmZtnc3CobGxvsZHPHz/+vnXpZLsLHS4oNW/r3vGywGWErF2PnixPq+TycChWied0Iyd4EREyfoU4sEKr9D6ul0bi6wVjOn9AgI6+vRZ7n3oUaX4KiNUuhqeY403hiOwFgQWOibgeIVh0wsCboZaoqEcwL50SDWADWrJQxjhUlaKZEdlWEaPW/dL0gE6oqgnMNyhHrwkUwqy0K5hI6xCaM/dgsTgdYS3fJFQaKX14pLWRAWgZ+3dcWwComCtNsapMI5wYKpMCc6OFDhVAI7Btj6lWIYG9mIEwEmYIseRzMii21rFvF5Kheu5oKA1tfDRp4u4xFCXBxAjQnenP9imFZs+qm7nhN+O+V6FQNcjHaWqWBBT78QsANfc7dINC+daEFEjth7Jgr46RCa5STZbVWtPovurTOTBGtrN455Td1sTCWml50N54wZxgzxgWiZPXd3Svl+ee/X5556qnyvScfL08++Xh5+unvEbz2dq/y2IhT2traLjsXLpadCxfKhZ0L5cLFi2Xn4qWyBdDa3CzPvuTfqRchAHIAQNtLKaSDddfifd3n4qwKLtAIc0EeKkVxZC2YZSmQSnpWeNsk5IfJFNHxiulS9LfYkGtttRF1GAILRixzkFlfi+dH0RzpZjxmK73MwoPVkILOFyni2Nwi352vYAyY9yinkrI+2EKHIMTTcFNQWRqvX/N/szn1W1QdLW8KDCj1PEsxaQTMWWJYTbhcx5+zYmdsrqs2Ac9pPh4LVm5qGlHsqrbg6PUj1lUH43KcFbyBaGIJEIMZeOWK4qwAcDQBIyDUrMeiaQ1dqN69lLAcE0RdmVtZDmlb2RvYAEqlZ/w3DVpbIIuiepuDMcDhcVFIgQIquZNGlQY2i1gpRK9mNZo1DTmkpyBXQlUsyWhydm/CmPopaxcBUv2zUSPB8diOa9jacLGrTRJh49iel1oD3sgEdniOMOUfffhb5aGHHigP3Hdv+e6jD5dnn3mKC+/ipUvlpptvKbfe+rLykltfVl78klvL9TfcXC5fvq7s7FwoW1sAqi02g8Cz/8Nv3FmfBX7AgqOgzZtoLaoEWlvyIEZ4gZlMF3YdeBqhKDWp3XtKa/fO/SY8jzy+O9kQHFqQaDYhvRV4iVm09zUY7HLjWTxSdRWPMP1oiGog5X2ERxQFLTUjLJA3xoagTxqMZmu4fgS3Bpdjb87IwY3ypuFQCHNZOxFrcFWQDFPQgbG+H46/+iAQkyu1jaXTH/P1f/eu6YnXEdCXManjD70AVkFJWYCPBffUdVmNTFXS2HoVPD/4G3YvVgiNoFAwL4QuKCgU1RYmimVxzaqRQtlqGZgAE9VeXwxHCDbPHbeCVB+soguNwyAY1RJmgjiXPpA/7x1n1QgxEDTituqEgGDJmlJouHC6INB2npiUzDvcVGAovl1nK5pEHMe2ll0zjxomKZtPMI2HnRGopTGsotonq+eFzKIpGdR3H3u0PPTg/eWxR75Tvve9J8r+wV7ZvnChXHfTzeVFt76s3HLLi8tNN91crrtwqVy8cJGsahOVN6g/jigWO/AXC/af3XdHdd+ThWADU7sXrZIoLyMTKyoI2OxzAjG9jLpVuuzJHlU9wXFFDdxkqJndCrCUPMx8TFSMwOYWhBkabf1KAdeGeWlIkg9aPSwFlsaZtB0FYMm0VHnvyrCdzsP6Vq32lsIenDupsA7HBBpEcY7DuEAwMVgyuKcKfKixGFHzih9T/iNomryWUV6w9lhA2ITSoAC6CbAizuMkXn8SdJnq5/edMQRikVlpA6YZiBvqpNs03QpAZdBius3WZrn+0gWK7TgmhFan2xCswo3NQNCo3MlJhOuOWkpiXBJeHZdrfcIY3Ym5SmYgtYIQ0h0KweJ3WASpVItAK3GMPrXPY4qJFrFP8ChapeSY7e+xUQTbWvWC8k56fHXz4o1G26wxAjfHqi3liqNOml7vgLElRjcejDPiwZDDRy1HDTOYHkRNzSGKiwfHxrS7e7U899wz5aFvPkCweujB+8ru1atEiBtf9KLy8tvvLK+88zXlpa+4nezq8sXLZQNml3XAxPipKaWvP7r3zrCoYqunFBPVN2n1h7eNi16yAce8ckNcu/ID+RaahHVLUu9CmvBY+ACDtImTmQZTDlPNThokCVkPMjiI2Nh7qJIv/J1g1+7LzElJytKW7MM2qHoINBwOrYhUQ9wLwUnnI4gBSLEeotSM0msiXwBrlCHwthoGZFFHMddbEj1qt8mTybgwJ9dHOIUdEDBdoVfy1pY3ocgPcX3zUO5QC4QdxNJz6XiLTj5uBiwHBLvyQi0Rw3Iwi2YgzEJMrhsuXSyXL6Kp6SbLxsD8u3JVzAr6FicscwKRdIy8wJF2Vf5PlTupS5llWXiPR+7sDO5oKam5eQNF5RVbtVNTeRj/RO/cERuTtoJ+VhfTRpqGsnrOMFm2dxQV32vkAHc/AYt10dvuvS62yGU9LGUc0eBIX6FJCM1I0etMiTllMCgfP2LB+kGmOC5MWVxz1KHXtXbnCJ7V1atXyiMPP1S+ds9Xyr1fu6c8/vijZTaZlpffdlu58zWvK3e96a3lpbe9utz04peVTXgWWXd9HvFgSBE6zlQu5Z8TsGyi12Vsp1VnCFEamVcZyeXSbSLEMdaCaqE3wCJri019jqjLhbvU+iHzSKY3Y56CXRmwZHlHjBWvWcfmZ0N7qmuIqS3Q8dQwleATpZkN2v6XABdmIQsH4ooA2ixrqNpb1vHUPLb7BTbl95LVzWflAGvJKWkB8pjzeB/u98glkCPQmtcPcCzTMtoYlenhVADZAawTQgpWT/gmmGl76t/CermBHYhzXaR4kV4gMlAH/qmxqaqCSliHXsW0myNoVqq/ft2FC2Vna4OLDSELu3sqEcMOOPbmjcdKtUHkOrSMmGxiWNHbL6ok1EoMYd14wvXByjXYOTc3VCFhtHVBxeJictkMQvcZteJq47YKzsNYkxdxW22yaspK7I0wCQlYrNx5lkJ4Aix65iLfLtqDRlOHw1p7/eRtpz1VLjAHrzKNZ1R74yGWqjaf6HUDxhEQQwUB/YH77y333/f18sB9X+dzh3j+ylfeXl51x6vLy191R7nl5beVSzfeUrYvXBfitcwWRfJHEOsxyP3H37gzzPM2i1u9g8ZoyLYjgNKlVTTSnKmqX1a7cBOC6lnJcnhZar9WI72jOQQBKQI3nU/HI9eUmKYKChCi7RbBsPX08wkV96TgT1VFiO14Ni/jaA7rY2OrrqyR3kJ5VB1r73nOyH1VC+OXovCFchbMlQOotT+D+B7WSa3CEL5tCvDh6cSzgveQ5IeUIZLOeT6AcQ6B5SiaCa27H+tyY6sJD8X5AKuP+Dg2o9j5wBTL4W8DFs1ABgDCDJoRrK6/dInVFzDIjGCHKbi7S3OxE7pQU23ArnJuYMRAOaE50B9PsKXbBLMKHaOjc9ksjBw+NnRwITXsXDDZgq30geV4wAq6zdgkfLdWWQR0xCfRJDwHYLGcC0w3JQjb5CQzhBkNAEBKzCkcKlxYjIhHGs+OSjB7yoWpSVBBHFx1IM4JTAhN+M63v1m+9MXPle9865vl+99/przq9jvLXa95XXnjm99Wbn3pK8r1N91SRheQHxjmZp2aaG6hfodkcMd8/em9d9S/av9oS9ImDl7NWpTfZR2Sf5dgR2ZSE5bjyAS40H/Y+ZnOhraE5LRtrcWqx6w3KeylFNtRPXWl1vS+cLyURlTN4PB+09saoEeDNMKguKHHCCC1Bu8ZI4+Wx0OSNEw9WVVYnx4qlwjIgOnWYdL5Xc9dGpbPLVBFg1ikGA3oFQWiy0rVc+gBVvzhFJNwYXD6ons62ToibR+s7EK1V4NoXEX2aBRxCHYFsFKOIJKYL+3sMN4Keghelxm4z1irWsnRMVYJsMyATPNZZSA1cqiBnlYBkhDv3ac1RtXOOuQC3aZJ6NAI6gxTBWwyObhTznj1iuoY6yG6s9ux2Rn0PXeegZBwAsOqGQd97xxMQDBPMiyVjOGjrNUdBADHpcQsWTcKigWAbwOwVJOLC5qlaPbUjxAMK8zro8lhefrpp8rXvvrl8uUvfK488vC3ynhzo9z2qjvKW972znLnq19bbr7lxWUTHX5QgibGmiBbE4sB4rsykcE6j/n6F9/IgOXlKlOvgcqS8JIKOK7bpNiknEPY1boEZipfY+bWnoYCO2ObSOEQXLSZiacqoDI3VTsqIrTE5HicUF4DIAgEkc5DFlfrXE3LNrRFfy7CSA5RIoZFtMIrGDW4BCgiEtlTma+zhmJE/CuvBFwgrCVbNMTK6DZlTqo68BE8z0qkHYZ1LQBLO4vgMG9Q66n5WbcS1uUcQZmD6m6jmlZiVfqG5wheaESwo7Qx6rHvH6DwHvIDr1Kzyo0aa5wVK3CqcJ4624Q/BbsGG5G27jZmVta0qE07It46V4p45rGCYbFeVAV05CVox6d3LADr2NUUf6xmIdvUb6hVFt3vCgjk8Si4d2Ox1jl2zCUBFCsaRGNS9iZ0O3kArUT905iEPD/LEo8FWBhrNu+UnkegrdVPCz1+CE/4+l9+lZrVNx/4BsMUbrv9zvLmt/5wue1Vd5ZbbnkJAz953WzzBUCMjtLRGIJm0L4YIdOEjvn6s/vuqJJAQ6ju3K0aV8THwYNnMKKHLmrByw1vTGYvsKhHJcGagZYEBn2GpqJfq3qv15KMyryhM481ySQa3mjKChm7spIosxcIaFmlCfbp/HQsRB4smq9i/ofArvpVwXQImnCYtLAMAJFNO7+PgafhYfV6ZlMPewGzMI+1DWCcR9kd3zryGFF4cEF0P7NJ6EdbLdlu7Np6WMWD9G/OgMWUm9wzcKqgUALWgaqAskzM1la5/vJFVmEAOCHOSpUX9mOyKEiutuDKsVesvoBFRCSXh5Ct3uOBhpmyDljVXRCABtEaGtb2TsqbQtPQ6JcX3rx1AUWgEhF+ETcGcMHqoDCLa06T5DTHrYAV4ELzCoC7sdGqiDI/EE1lI0L7FCfgVHBCM8tAo605UnigYclJYBPge997vHzzwfvKp/78I+XRh79dDg/3y9ve8SPlrW97Z3nTW36YQIXUKIFFmA8jbBABWJEuokaqe2uB+L+471V10S+7rbzIR2E6mSVS64luP+xM48RmFt5Lbbdw4OmMaWFYmgomdQK02FBLl4n4oyUeY5qCAI3EstxPWnjXcl48Z9nkgpfW6s7b/BTqw1JvHk6WsIlv1lnXgfSM8HN0XVW+ZYvtqsBm1lIt66a3scTzsppiOkkNtaLJiDXJOvKovdrwRlcsd8ea0zC/dx1kWnbc4AyxW/jEufqCK4aCRUEwVxS7mBXSbjCEYFU3EKzGBTmDDl0AWLEtEy91wGBA7mgxSUxJGSMVLucasR5ekKpN2RuYdgZmpNQIdmW5G7Hlg1CytJKD0YGGSmsAFnLtoorlOiMeIihdyJ6QibXpz4tR4x717IA/USfDHAj2yZgpxiNNFOhZrzkdJa4t9mDezRI1swboKo1HC1vfcpezi/bebvnqV75QvvSFz5X77v3LcuHShXL7Ha8u73z3e8vtd7ym3HDDzdFBW2eo6wFDz2tGL0WxQrIqXLNbkx0zzh958PZqcik2SUAivHD7LR22AlZ0NuKGS1FbQC4OovkAUGLHZIaVA5IGjBT33wiENeocNdzD+xjtxWoZg3Tt0HhUctgmmQRyxUo1hqUBUh5sRw+qbcBa0HLVt4I8qK5XKaOACZyLNbsiMdyvs/JpXBuJvn+LF6P8XnWEEGQRIc/67TYO5BBAQLGuM76D2fE5tMDReEd952kAy1Pz7IDl02bKS8AKZpXNQEeyO94K4Qs7W1tMaEZ5YwSPQquibkX2pRbz3LuCXQmAPBkjE48oLrBh1HpIFxmsBHQtvqSagyG6t3CG1q1GEfRqLIFQgXANaeFHnfZ1sEoTL9UKSiaCkUHbxzHPzlHmsUAEPE0w7TAsQ47TYsAeItq9XW87l1lOpde41CV6aN3iDLSemJHygWTlRx75dvn8Zz9Z7vmLL5fDyWG563VvKG9/13vKXXe9vtx0482MTM+aaFss7qIcrcno6VW6VIO15aONd3zsAUW6472KX0qxTvljyCVMAMZSMT5HqijLlUFrXVUJfM0MmvT88jOLz+O9nmNq7QXnv8spt4vAJk7AivIuWCvcLGmJKFK+MsKJLBRsyv4KDK7DYvFb9514jM3AdP90llCAi9yDiI+sjgnvmeE8kFwhBlaB2wGqBEBVaeD6SU00slmr2MiVyc8ZfJbtk23PXjZ5T16AbeGJvTYPZRXaIzDUupU9gg4KpYAOqj0YlJuvv44MCxVDYQLCI3hld5c1sF2ArYrirGGVQMeVPR20WRmTdkg/WIJd6FQCrqCpIRB3Qx40Po3Jh1BrCmyVshcnlelud9TX20D63Di4qyYlJsIQGk+YYvT4qcSw4mnMVtKz948GuNib+qDo+BzSdu+27DmVPGBpUng9qImn7w2VM47K4999tNz9mT8vX/7i3Yxkv+sNbyjv/vGfKu967/vKNsxALKheDFget8CbzhTMQnUHd4zQAZ4fu78vuq+eyWM+QzVdxWM1lmvR5ftaTEbWMCpZndyn1tJSpRCVhlEhPcw6xiv1+ADEcrA0rh+2HdNRzXW6NTxsWjYAliMr4LmjTXVXdD4tU1fx54g9VSOJkPRtgQaXywhBNZWln9DuTBsB1guvGdoe0qxqlQYnatthEIDPDfBU1RoqqdTO05kZ6y2o7izSbzUot8aZNL1KpmBrcooJLZFd/7Ji6PaWSsWg5dBkQmaFWkcHKG8SqMHdLGVEGbAISDndJqXH9AEogxzTeOBFgw5D93U3yNRgVRd2BcMYpyXMw2uHU5mdol0UDRHmYkJiCuuPdSPMKolTUGrYzUuxIOjql0ifHGEn7zfxjjqZMYioXBF1wjjw1qaSkH7cgbHQn3jiu+W+e+8pH//In7IUzM6lS+XHfvpvlDe85R3ltjvuEmOIBhTMFlgxjuvcADdJgricF5gIH73n1thoPC/aU+n+VJTfx9rv8HnouSjTDZ9ty1yxUgkEEFxK86bpU9RJ2Uc1GvKGCI8NWe8FhVGpl7qHRJEquYhmZTwelklEpLuGlwk5GddgyGYRCE2oDCqAI1s2zWune2Fyc/QzoClLFoeIfQR2BuCFyK+ie5EcFA4FsWFVe8AREfs1iTLmuBaAVc6BNIDTOowmFUqOXqeme37ySfjTQmD5sFMtoN62p90h088Q1kGFc6cbNo0gWAmoVIhvVi5d2GbVUEeyQ7cCuwJYsSRrrRSq3UzalATHpj01G75qDxbYzaQlbDoSAAAgAElEQVRCllLDUkSub5XR5mYZQVAn6sLTdRD1sBQQGByLP6wLMWpGOopa4zBr5EaeQZjHd/UmrnlEu6exMBFhDq8fuzlrH8Y1M3L94OBMQr03BAnpEujZ4CK0IwAi6rmf1ChCnqtp+dpf/kX58hc/Vz736Y+Xy9ffUO76oTeVn/zAL5dX3H5XuXT5BoraMxzvYE/17Wuu2zoQ1X0Pr51hFmimukVg+MiXb0pxQdF/D8GLFKJbdxt+NMoTA3hQDlGt2YPBJNPdTXBrkrBF69DUyDSgc9ZQAj1b5/dVcZ0LvumTygFUrqwIhGgek7G5Y6o6KCwBfNuTaZ7BTTxyD6s3L4VYWDIRqZBswMamTAavgRPUy/Ikz46JurYJtrovJ3VTpFc7nzIfRR9EgJQbIoblowYbbFG9JsMyUGVPhe3tqLNz6unih9Zz1eLiWOYl5QnSFDySV7CGMEyn7G6D1JvrLkG3mjJ84YUXrrCKJMpiYOek65egRewXWEVLImtTzczTkFIHCOalh+30i3Abo3bS9oUyAlvB7kHiKcAqEVJQhyoY29rjg2tlcCWi4pVBy8WMMIIIqtRGsT5gETBZuG+bnWJiVYlzsrPNYZnv73Jc1mUsHROMnsqN6EIDc9PxOqi2qah4xj/1TBqPCSY4mDOE9o9/9E/L5z/3KQaHvvkd7yrved/7yxt/+L3luhtulqbkGvSIAUP82glhCsvHXReCGuctTUixZh/5/CX9LcwbRRqgNdWUjDdKOPI9ABiCEdhLPI+aREzHigCOcyiemNmLRXEl2QdToxesqx/pWhQeQQxKaxDBolgb0ISUtRNJz5HWQrE8mkL4uTYHgjyVCrtw/WGBXiYQGvMI3J5OywaSxsOE5euuo5YcP33tj4CXfHtZI3N11Vq4EIAV6ZoOKiZzDbxbzyRMXq/OBLAOs/ZqbG/03G3/RsebVDG0FeKbKnyBgHXA3EHQSpiB6HYDryBKxVC7urpbjlxN0TXXCVoiziqPolCFbqCncEeBnXqIZGBkPOFVxN8RmwRmtQXAQo5dCJuY1Igsh4l1GF1cnMW/9viEWYVKBgiBCODkzo7KoM4PXJK/tfoUwYCxO23uMNWmlhIgzoKxHJb53tWo57UCVZacIJZ9NamG2xdrg1Y5myNZGiEFEbKw7Dpxn0i7eeyx75SP/tmH6BVEQb0f+cmfLj/yk+8vL37FHWUT1x06BDzAiAMDK1Ru4Gm/GhoRxME6ufEMy4c/fyGBAzb1QZnOm65kwCIQGWyQ4mJbwxsMBG7LC/YYskqBRo0bI/QcMyO8ECaTgckCDDenyCs0K6JziPW4VHKYXWv4AW1kCkiVGejmLBXsYkroHrT1OcA1syOZom0+OO2HG2YAJ/4VaHn1aO0IGsxQbcgGw4rqEywMGGvNXkOajGgaG8eXA2IogZ+y3joa1g8IsPLSIIugV1BBoWwewWqhEcJA3eqADAu7Biow3HTd5YLCaHjvlStXytW9XZaNYboAaowjP7CWN47BB8OKrjY54JPu4ApWLUyhvodyEhqd4ribjABnKy67vLk4wSYMWJ6YazIhzVJpKV5EnhSgzqxzdcAASJc6WWeZ1tjpYFgIXmVFgNgRM8NyI9VTXLFMFESsY+dlVLyj1wOwUCJlf/dYwMKzRxIzwhg+88mPl6efeqK85nWvLz/6vp8pb3nnj5WtS9fruDFh2DQDgEU2e07AApMlYIkVfvgLOxVQwCQY5Ij/BZFmjBsDKRXn5zpNKBHM3Nb5jAyELD10XgNP9Y7RWhuU8WEK7vQCZbeeiErnazIB6SGLqhFOWvbxzcKCgwXjjyoTwaCQ7mIkNutjk5boP0gWSKaXQ3LSTEieZAe6quVYzPNcWic1m8jAVrXemp4zL5PQ8zKry/O6nwL1VwJYVbdK+rM1jJonyKRmfcMrCI+gwxgu7+wwfAFhDGBhNAWvXGFUO+OtsOMwoRkmm0xCipAR6wOGxRiWToR6MvsChBz6QF02JhTcwtCthjsX1CvPLlh73ELE9s60tukWgKWWWUrjydG3BEMc+4yARY2JzA2mJqL5pclUIITZFrFVXcCqEm/HovN7+FdHr++AYW1UZsh6TmzSqpSb5eYmOtYclAfu/0b56J/9cfnmA/eVjc1xed9P/0x541vfXW579evqNds8ZpWLw11qY6cB7w6/x/Ok7nZBul5EZH/sy5cFWGGGATxQfWA2QGyVahBYBGed9GAoYzCZyZR5cH5NmlJKTM5R38NB2UQTivgiw4jFj6J3ZihmYywqHC3DqB/1Uq4yM4LAzvgvLTRF0UTBSColrsZAxIsChXQchbBt8EzX5Hvq2PVZIvJ94BjEPM0vgmncBEMwWA1XXkXWvyImp4oiwf58aS2RWhvKXw1gOZrZdXei4iEmAAAInr4MVgAqdDaBKQjcYckYlDkeRlIzvIK7e+UQ+Wgw+WrvwE0VaaPZJmHcnZkzYNn8bpqWI+EjbsvVG7gzRl/CnYvR2Ub1qcFOapoNxPEzuSLCJESTCAKWhUr0o4o0nsg7XIdd1cUQFwMQJ2ghz86AxRI3TuVZVtmhAVadfL17I32HoyC6SjPqHh9DYT6wQmh7MSb5urVW5uXZZ58uX/2LL5Y/+aM/KPv7u+XWl728/OzP/XK57fbXlBtueQkZZ03jcbE/gCAn//om7MKYAUBG4zIDOxxvkDF96mu3NJON4nVoOEOZXhvR2IHJy9axyoB5g4wzQuhLhOgQ1INl4d05TQVEZqtHDs18fJ1ugqEILAnUBKLQyzhfw2us0J3YRngNSlAm0MBsi+Rlh0xwOeARweSK+3SMqgZAemG+h8586s2BwL3ksOjqbXVQ8ch4H9HhmvEgXeAm+MYBrXdZS1sTsDzj894bEfGnnC/ZfeoFoGJ8U+UJup18MCuL7PgXZ4dmBcCCSQhdC6k3yBMkoEXMDwGKTAgF+UJ4x8mi6kINCu14AKPOetB592VTCo98hxrH8BJGLSq1fHeOXSxMFyo7Dap4h4LpxuTgMN1ijxIYQrxWUb7Tfsl0E/NU4TyVPGZKDEzkVak8LWCqntKbYL4Gds1BqWZ4TWHWMqF5onQbtvlq8Vj+HNf4bFoefvhb5Qt3f7p86IN/UG66+ebyhje+ufzM3/jlctPNLy4bkctIwGIhObG21Yxt/ZHBNe9Pjso+Smjjmsu8fOU7d2lthWBt4XdGwBqVsfPpIn/QwjtkCryXgEWWEZ0cEsOySUgAKfOyPe2WhqGpmR5tM6ck7LP1VRLvee5kikkzUkgFr5upO6FRUctq5lvbfGRyVgalWIvq7KkbL9OQYv2bWXUyU6I8OEKL6AFozLKCVYwRDV52uVDjVzsUMsvMpmQFSrLeEzWsuPieh6IumtPGBfXqXDn9Rk1PXd9KVRgUwiBTEGC0tbFRbrruurK9ifqLKOYmsNrd2+ff/cAc0MnytzYJY+FT7FSsWjUJq8ge90gXc9QjapHsik0QcElrEmNx6WC1tVpuVmnIW6al/DnLtCKyFba12lJ4ACf+VGk8aJl1xhxB03LFeIm5EcSiecCyGKycxpNhYOl1UwRU2ypqWjghrjv0wkUXoRYPNqi/vOdL5e7PfrJ84mMfLm9445vK29/5I+U97/2pcunS5RDD3ZEHATuxUa5KFo/5WEH1OEFuMCiPP/FYeeyJR8r+0SHTfZ4e/bzc/zD3mFyM2kzoFejQg4YoDB8IBmUvIZ+zvbiZaaU28/JYlzIGCNTNRxeKp8JCdSI5Nd6Rm2wI6r6lYc/zpg2AAy+nUaQG6dm1gZCQLdB0w1I+Pg5a8xJmkb5HhDSfOzmMjmwQu4OWJ8tGaUP5/LjnMce1lEm0TvQw2MvamFWMis+1FmB1AoksIYbvtzcYx+1vGUF9wxWwXIEhRHbFXB2WgwOJ7XCnXrqwU2664XoypaMDhDA8X/Z292rJGHn2UrcbRl3Ha1lQzzFY1rEARnxvaF41rMEew5hQ4bnjoieTU1wKi7mletv9daJnFp5KxvOsACy8j5qQKkgYsBgsGQzyNKJ4hwXFLx39qfda3c1ixTi0gq87528JwasvRcoTf+eCdR/ixZmBhXNwsF8+/amPli987tPlni9/obznx99X3v2jP1He+Ma3s8ONVRCuVRw7lzRfMtmCQ8RYxxtWVK3AfIFn8qFv3V++/fC3yk03v6hs3/kfKErFCe9RUpiLN+KbdCmDMpi0sIA+0wnZnIwIZqQc1Lp4654OZ3BYDW82La9xYjA0M8NEc9OL2lgiQJrXEOdAOzuyrJiTFXwCOzj7okCfjMw60qFxRY/KYFMM4HQSMgkSwK4V6wus4/oZUUPrxqzxtDFJLNrjNTStkAlYJa8cSV7HSmEPGO/KsPIsXGdJnPb9DZE9z/pgpVLH0UQC3XqT0H795cvluusul8uXL5cDBIe+8EK58vxzaoKJNI0FsIrUmWr2+XczK/3byQUkIxupg0rUdG8xWC030A/b92GG7D2yv44EVgFCNR9vmWFl928wsPogVyczL4OB5WGqMSFrhoJ1iv7+G9dgIR2mEkrX4It6F1iTPGVL75MvJhbSmYnpMyFmX929Uv7sQ39Yvvz5z5ZHvv1Qef/P/VJ5z4+9r7zylXewUQRNy6UBXF3A9xk5qmB5AHyCLLb75WWRcQ9PPfVEeeih+8snP/HhcvHipfLa9/+e7mAFYDkTD38fJyu3X0aF7CbKxeAzZDTLAMvJ9BGLVckIwDHCVxAe4vMSLFOgaX4GBKwAKOi7io5vxfm05zQgYnMLI43DLSInkOZkzjtk3KhrwrtulbpPe29SGJBThLqzo3oT483ewM3oMqPKsW5VQhqqI3YkP3syW3RdB7CWbG/JK5AnNE/aq8Qgr6BScFjbKsIYWOqYZY6PWHddqQml3HLzzeUiWnSNRuXK1SsErN0rL5SjlE9ob6DAy7FXzfTrBIGGSUjAQkAgNC/UXYcHEIDF0jITlZcJeu5g0pxuExvWssForyGokmkxG1pA0R7+ONG4Y9IsYTQLJ4wg0xhold/tUfHjL7L9lZ5taFEQ6GHyRv7jHM1o6aGDnrjORfXO6GjM6BJ9OJ2U7z/3bPnjf/r75Wtf+ULZff658oFf+JXyrvf8eLnl5hez1M+6el1dADU9CJoUTMhJKwrYM6cxT1648lx59JFvlz/7k3/GLjw/+W/8X1UX4jwiwzK7aWkpBKzEkvG+XDnUMVqckyGOm/1UzzLTZbTWqE15Xwq2QS2M7GkmYTze62BPm6Fe7CxJjMqiTBWKFlw2GyVqxV4mRsNzRl133WNXABfzaW3OxLAEJy5PY0vTXksneGf9TbfQGJf5XO3T4K5BYRcymj50QGKHk8fJ0hyCGuWH11qAS2e+KaVNn2Z48C/pgglWcBWHbiXAUjS7TUGZgwfUkna2t8tNN95Ytre2yuHRpFwBu7p6pRzs7bK9OIRYPEzcqE1AT7asVWXAytoUYqsGmxtlvLnNYFAG4qFaJwMUoRspBYlmQBUel/OY7tDogTM4EdUwHUvE4x5IPE6tuFbFohwLNJ5UTGiWIYJGEWRBzD9cF6YyYEUEeC+NB54+gBWqd8ocOeXBGdwohwicCnuHB2zN9cF/9L+VB7/+F/T6/uwv/Evlh9/1o+XSxcu1oejadwBGAOGfntAGWLU0MjpFJzEYoA6G9c0Hv1E+/pE/KQ9/59vlb/1Hn6ina4AlEdkit3PdRmwuoS8RFf2GeW2TzH+11oX3mOWwiF98filgMdVH6EUvpC1GekejTlUELte5E5hU9Ss+JnAjFOKLbj2qVVNgco4QkUmdyfaarqgCsAHL8yyrUQST0MMi6JVgVNN7PDhyAhhw86xBWIOdFGa19pZ6PGXxohYXpZear10rJpyeXzWw0kla8BkfZsT3KPkxItoTuyJgBVg55opt44+Oys72Vrn5xhvKhQsXeVyI7Ii5QquuicvpRu9B6VcRlZ5E867pF+8xFY+ONqOdnTJGXBWK+PEhIQQCtcv3o4if3cYW39dYRsyR0uJkrloFFHu6VLK36gc9h8QaZ2B+lUR61NpCegn6ZqgbD/MDT+1RdHzS9tKoeFYG3bsi8f+Ux+aiiDzJ4c6lcmX3Snn80W+XP/w//355+MFvlBtvvJHewbe+/V1lE6CzxOxcOSbhrGAlU3b5kfdWrcmOouIoErxVDA4azNHhQfnaX36pfP7uT5WvfumL5amnnir/9m9/vXMKsaHQnmIhcn3gVoLNEEiqaRRdkaNKp9CstSE1oJF5tcLFSxkWNpwwuAhY2jBbiWKHLGT9DMdX4GpcdgUsySZ8b2w0YIj2SrrbNJOUYYIi3ScAU3hhmGnoMARYxfpuAgd0tG4JaWvXdoZ5vldnY0IwoofDwzh2HoGpCkRkwJJIutYyWf2maj+1G2OKRi3G30xBegVtCka3ZjMr/IsbRIuuW268kZoEot6ff/4Fdr1haRnkvtElL4Zlwd3A1WFRAWb1fRbbmWqzVUY7FxgGgQfliQHTjXXGUbPK1TVPkxtIHcidZ1QNgOkUqJa6v1uef+qJcvXZp3jdAORLl69jSkqdPOs8imibxfxD1khHiAU8llqkil536sQaB+ROqkTmZWk85wIsrnJlCgCwnnvh++Xhbz1QPvj7/6A89p1vlltvfWl5/8/+UnnzW95RxlGqeo0r1lsiWJiBsVHJlFOZc29S5mDjCCw+3C/Pff/Z8vwLaGF/pTz0zfvKgw/cW77/7HPlheeeK3/zVz/GZ+TZK61dZpmreyojAou9rRcHdjYtRiYegSzCCzraXrj4Xc1WCcsBJhb4awpWl2F5nZrxCRNbZ+khPHQpR1A6FeaBHEsDpr4oyZhs0QnbcRwBsNqBsdVdXI+AugGEfM0COAOhfZNdIHGpaKW5qYFqslAildHYQ6x1qhEBOFyJ1JVzTffwRJwLtCwUe28wa+DDzfXZZ+onWFNwpFsBiOAZdDOJ6y5dLDdcd5nVF3b3D5jcTPYVFSTBgviAVojuC0BW3xdMCyJ7AizVdA+nBbso7yro0WVs115BoHBq5CCGJRMFk39v92p56vFHyyMPfqM8+ci3yQpvuukWdn658SZodZfoFc2R7ktPi0kPoELeoWOrJBaqqQPyA6eOBj8Fb3ZSMGLBIseOczVM5Nk+8g5d6mb9AaF3iNURtspw5yIDRr/14L3lg//oH5YnH/1OecVtt5X3f+AXyxvf9HZtHMkVf+JZOgnYKHONmHQDltKD9p7/fnn26ScJUt997JGyt3e1PPP098qVK8+XG2+6pexe3S3v+pf/d9sx9ZSxzXQCP1VPPeKiUK0hTD2ZRA08xLD09yo881E4VSz6FDLtRmlA3DAjqdqMY4wquWkQeA6/x4ASQavqNI2uy6NaAcJxcAYdRcG3An+VIQKYXTWCdde7sV4MSWDuoqqK1kj0VDYZoSA1wj+BnG673UXbFDK5cbM03Wx2fojpXRPAypwuenT7sSfAktCuANFu5xs0kzgqB4cCK9Rnh0B5yw3XMZQBVRleYGv5/XJ1b4/mIyLiW9S6Yj6qjhVsisKjmVT8vQWE6v38HJKZd9DkNExCV4YEw0Ie3NS9CU+x6HH/EcA6QFIw8w5R1P+oPPndR8rnP/2x8rUv3V2+/cA3eA0vfslLWQL4DW98S3nlbXeUW25+UU2sXqltUR9Dus1FecacDhHNImb7V2Qakh1aLTlx6csbAy2I3ZmV4E3rCgnY7PKzF7reycfK7xBgofaUGBbqXX3zvq+VD/7jf1i+9/gjvP+ffv/Plze+6W2nByzGxo1V5QKR/FGXXAnYUzKsp777cPn6PV8sd3/202xogQ7Gm5sb5cabby7vePd7ysH+QXnJ23+9XrIrOEs0bjXZZVoJDB2acCxgBVPCR5x1IflHwEIJIgGW0shUZ0uA1RL1fXGsHur0mwBF9yJwSg7nd4APzDdrQ1wTUY8+ew3FBnVeAJUdAvxcND/ldQY7qu3HUqhGoAz/UV16zTtry4Abgy2ZnbNQEnmD91WqjLgtHiX8vGwSXQHrXOxqOWDluCubhQQslI6ZKYTBYQyMaD84LPtIPZnPWDn0RTdcT7DCZ55HRPvuHkse47OM+qU2IDvaAaKMOM76lWOrDE5RIpmCp9+LJOmtbTItRDzTJGMeXDQvcJuv061PjToeCBOlFQj6/WeeKg/ee0/56If+oDx039fLU098l+dDNxjs8ugIc8cdd5U7X/2acsuLX1Kuu+56ufeXfZFhqbJDTV0xq5gclSmYkJnoKdgKnyaDYiNyPQBcgHWoOlS9XLZ1hobTz3me25fKs889W7790P0U3Z949Dvllbe9qvz1n/mF8sY3L2NYTSWJ9dm7o6a9FV63+vMRrOAs2N8rj3zr/vLZT3203PPVL7PP4Q033VQO9veZCnbna17L8Jh3/s1/UKt1xB4f52mLT3tRmEIRjlALD6cW8XqfYtOp9SQvJQEgaa+tiqVYBX4Hk8FiVRS9AjCzsM8k6QhjoKOIC7oBCgEyAZbBxOYnMTeZeHIWjFR5IiLQKyuMWDLHfnHt2H/qaP7Qn7g2zaTCUQVy0c4VDAzmIauoJA2Q1RrCWRQbA0NCwD15TYI886915t2S9yRBLmlYDbAUOZzDGABa8Ai63LG1KzAsVBG9tLNdbrzuEkEJZWOeQxjD3j5NQSG0ytKSVVUwMmsK5pTNvwhzQOyJ2Fh7L71WbMVlwEI8y7QUVCxls9CIXUl33pUg7XRYNGLIVth8Arv+RvnW/V8vX/nCp8tH//k/pXlyeIhuPp6MQwLUK17xqvLaN7ypvPZ1bygvf8Vt5fobbiwbuL5U61rbFqLiN+L4G2JZUeOK5WigYTEt5hT1szgJBSyMZaIepOBYJkqT2S7vJr0oy3aniiPnWd9++0J5/srz7DMIk/Cx7zxUbn3preX9H/il8ua3voPdcKro7vkZptRywGrjQcBCOEYAFqo6oJDgtx78RvnYR/64PPTg/WTzr3vDD5XHH3usfPuhh8r2zlaZTKblX/vbnwvAatcuXq0mElkuQQS8GBbKy0R12N7YWFyvYnldnAIl5rpSm4n+jD4tPXhgNjG/E2B5XcETOTuK6hGkg6sBa4BrrWVukD4kZ5iMvtCieB3DopKUrhDa5g5eVbFAV5DoKlX8lBlYmMBVD2551pphAPbRkKk5jnX0c1UBP+nt1WwsEV40n6IuZwrROCNk1Y/FGTyldXOtdAzNwYlKyACs2KrrSCEMuRoDwGp7Y8x8wecRxuBqDAhh8MAPsQM1UxCTg4DkaPcOu2rAxs/UGllKVUFFSeXZRSt5epeULO3H0tcQ9KDjScRj7w8fBxcJtoi7nEzKZz7xkfKFz36i3HvPF8toc1q2dsblyvP75WB3UiaHaFY5Kts7F8rl664vd9z5mvLq176uvOGH3lJe9OJbmapSqblPhK4mbMMFV/5YsdBIlGYLMbXNOqUhq8niu06UXXFjq8JSU014zajA1KRPpMEBk0VoymOPP1o++E/+j/LwQw+UG268oXzg536lvA1eQng9s+4TV1XvZkWtMQYyMnA0JGGWrkaw66w88shD5bOf/li59+v3kE299yf+WnnskYfL1776FTZrRdzfv/t37uOZnHhMkkzPtgDLLIGggfioMKM2qgc4iu3FbZthGbAwP/GFaCJUsxDTFxDk4n3YhLGpa64KvMywqtctmYQ0IyncN0FbepUGfRiAxZ/xH0Tpd5z50nThGdxh8Sl0kg5PcI1HE0skm0vsLH6rzoqFdhmcM53Vo4saDNhvEMeLA7Z8pMy6InIeZu2AgGWR7bxglT5fJ7zrtAOoatljm4KIalerLkwW/IwJgOTmmy5fojcN4QvPPf982d3bZW6hPRJ80AYoA1f8DhOLO5dzCTkpwnSMeC11zxH0cRdw3zNS1AigSwtP4NS++KeqZTjAbxEa/L7d3avlye89WT7+4Q+Ve75yd3n+yvfKi195qdx868Xy9ONXytPfvVq+/8TViJfDtY3KTTffUl76sleUu177enY4fuVtt5cbbrypbEJfqjWTEDoBsIXWFEIzxHE6ClQO4OyAJTNM7D6V5u0f0aw66mxJ81k0GzsMbDhkhdGnnnqy/NEf/OPywH1f58JFHNY73vmj5fLl6wXOBr4Ilam7awQ6Lrs3V7F0IKRd8jjXvV//i/L5z32yPPvM0+Vt73hXefp7T5Zv3n9fefzxx8v+3l759/7O/cqaiI7D1qqYnxe6WJ0FUZ/KXkPGarl4XrzJgY8GDidJ43VX7qRulJqiNsahhGLOz/Cy2+uofTK8lWGKEYiiblU/JITzPzYbMSFjBEzdaD8WkLPlUILY7Hitzj/9v3l7DyBLz+tK7LycY7/OaXpyxmCQEwkSIEiIUUtFSrLlUvSutuwqy2bZsr2hNtSu15ar7NqVqlZabVDgSkUSDCABApgBMDOYASbn1GE6h5dzfq5zv+9773VPT6JV28VmD7pfv/7D95/v3nPPPbdtyyRTUzedA2AaI7rhpFv20X1suojafulGJcu64Fqi2XqXKc9PtbQ3R7n2yCNNvjEEVIB1N3dFpwXFJTTgdTsRCfgR9HokFczlcshkMspptMuNQYGVVe1QGnzUbqQednFqoNGe3aY5AHJeytbCEO+yMEVMZ26+Bv4uHdmmDwR/TpAwoj1p8lUupuYduq8Kb/jqyhKuXr2A4+8fwZ3Zmwj2OrDjsT4MbwtjdT6HO9cSmLmaQL3WgOwh+r1cbjd6emJCxu87cEjAKxyOSp9dp7Kj+w+NHU3b6vh+0ZUphXbxjxtuZfdP1HW4R+orfZWKTFe2JMorXiQnXRzJOhbKYpF7ms2k8PaPvie8UjqVwGuvfwXPPPcS+vqGVESjI1jxudfe5YZIV4nL5h/rChX6/hYLBXA465F3fyRShr7+AfB7qUQc2UwW5XIJv/kHl9e9oVJ5EDj0tdTVQKPGVr+rWpEAACAASURBVGvIDJlQ27Q5rvUPpi57MGWU5uqW8EVmQzHC0bZA1cZJMlq/ZQDLnK/myeT9ZRirFpHeA7AUaa6HZshrlCd7O93S52TA0CURVtfmrCkYieC6hKo8Zul37ARyitg3yvWuSPUet0kJytWuIC8RsF73txWfpjPXh3BraP/2hvhCyU/vfRxdBGM3dyWpYL2mBqGSaNeKdmMfQxdRP22PbVZJBQlYVLbz9abq0A1QGyMtATKHQ0kVqFynvYwQfy1YWO1r1BXnZcBKh57KclafkYb5jWe3jtvRJDp/T0hd/dlxU+j8NqOr27eu49jRn+D27esoN9LYdqAHozt70DvkRylXw9ytJG5fXMPaYg7FXE3GIXGyCB9SWuqwNWl4ZBS79uzHjp17ML5lKzweX7vfS22KujesC1zMDVoHPnxQlCuhSpfWiUAfzHdtxGUh51mtFCmG4rtklL0WsN5rlfB+UuJx7IN3cfbMKdy6fhUvvvwKnnn+JezcuU94O+EAZUgEOTrVW6gskjnw4+E96Hkd2E1RKZdw9sxJcYhYmJsVa2amQf3Dw0I/vP7L3+vs9nJJuQHy6um5LTo9Uq0pnSinTU7L0Cu9lrrEnuaWSH8gfbNIcOvCgKzPRqcSKE+W1aSAeuq4iY50gzMBT1IxO5uNNRh12cqsj7C0zEGfmaoe3g1Y6hhbMIDVXTQzqauQIHrMPOdFmTFdCnh0VdO0BbUX3Xqs6Fyr7lTx7s2+DWO6j1He5YFuDSbcbz/OD/bBWl8dVDenE10xwlKARYJdoquKGiNPb/a+SBhO7i61GtKZjIAVUwflsaMQ3nBQJqKSSKvNS1lhcymwsrs82sBPe1nVWeGqCh8glRuzoLTwSj3zXcC1AY4VH2VTo7I0ZySvp5KaCnDxfmKk1RFq8losLc3j4vnTeO/tH6FQTsHfY8W+Z4fQNxyAP+xGs95EfDGPuVspTF2JI7FcQKlUR6XWUKBlAbwuJyKhIMZGx7Fj917s2rNPyHkS8oy22h/32EdMasrBC+yXVDYwBmzZhmQe/ocFLM3dGc2WtPF07JFF/iASiPJ91fakAS6cOy2DJ06d+AD7Dj6Gw089g6eefgk+cnYGDEUYqzyrmty8CFg0HnyEIRSmy2JubhpTkzdx7eplZDIpoQ527Dkg4LntwD9e10uo1hzXhbIvapfpu3MXbUgp0ZaJQo1cQVf42s4M+rnkKlMkvkrVyFc5aPetb6Q4E8j6XA9YskRNXy7XMftgZTai5qY0h6WwR0ctUvRuKP2URFpqQk/3RzsibQEmJez+uUo31/+OcFUGpRSarPeov2c40z7JdjS6LiJWi7XzIpGvqi6ZhwCs9W026l2Mj9LdR7SOlNSd9u0GZ+3GYCY3K7Aif1UGbWF9Hg/6eiISrZRyOaTTaWnFqYrUQd84DUwcFSTgpTkpASzTxOz2CFhJqw1fo19LsGIrjLVZ17ujnvxscOo+YCVnLVU5LdTUamrF7WihJjVb60Zxsepcx6ULZ/HJyeP48Oi7CPU7MbozjP3PDsMXdMksOX5UynXkkmVcOrmIuZsppFaLKFYbKNUaKNeb8Dqs8Dtt8DgdGBgcwrYdu/DkM89j6/ad6O1Vs/Q2/9BpHL8QUJgmS9VSgYtU/mi9TItkHWlt5D82e1/FzfB6aKdRJ4dmdDR4IjKV9y0KubxZpZJ/h5KVOzOTOP3xR+I42tMbw579ysCvp3cATq9fKe6tWm6ilfwELRhR7yO2CDHSyhXymFuaQyaTlgdh6459SCcTyJVea5+u8JriHyYKTfl+d7TYSePUr0iRwBjgSZSkJdzCUVnarTxGAc+3tdusQgNwFRhSX3FwxmWhMyjC/G0jTjV8nupbVKAlU6H0Ou64Q+hJ5hpwxYtks0qvBqRNAUsXF4yiwAwVFn8yE1PqroBub7BN146xUTYFnC7ObOM1NlGWlL7ksmxq4Ne1TW8spd8FWHeHe92gZcbNmwZnttdwV1WqdqW7Yjro9/kQCgZkZFelUEQulUSW9jEUinLIp2mH6AIgE1kJIOlQnTdd2mwIWEwL26O+6F/E2X5qdqDxIDJWMeYm3zvJVYDVrSyXSSuyk6npMM0SAavanh3IB6NYyMvoqnNnTuHmjauY2BfFxP4Yxnf2wOnWFUkR1LZQLdcxfzuNmesJTF1eQ7FYQ6HcQK5cFzKezcEBtx3hgA+xnii2TGzHzt17sZtVxN5++ANsGN78DGQtMrWijbEm6IUaEL1ZtwSiy2r3fjCoR0lZmHLzPZ3d48OUKl6GtBJU7gNYvHZUvHMk/Ts//r6ozmN9ffjM576A7bv2oXdwTHu6a+W/FHGUMaC0Ht3TK/5e8K1ofEauJUprZK6hBf5gGKVCHrevbV1n88ufWW0tNFoEFb3BdW/++nEVqY0mr9prSYh7TmduwSFck/pvJpeqGViZAqo1pMBQRf1KNKmoVB1l6ThBLF70+9AAkB9G86Qqlkwt1TOpIjeOJ+PQP8Wt0THVPMLi7mAsb6TQpKIkhxitd0BY/Q11TIqvUyaDJNdF8a6tcEzfn6kHdd8BdX2637fzU+W/0JXZGF0XK/Xt9FJLKe4LWOvrnutXQJujujdg3WXOV1dShnZlUMBKpYd0Y4iEg3DY7Shm0kjH48jncxJdqVFGiiAnOKn0z9b+9+aA5VbuCwQwTRSqCEsBVjf/8KBU0Jx4m09hK4xVVeVUQZH9ezVIy4pWlvNYC4U81laX8faPv4drV88jm09g7zOD2La/D9E+n4zs7qxWtetlkyXM3kri+uklpNdKyGSqAlj5CtuYWvA6rfC5bPC7HYhGoyIy3XfgIHbs3IuhkVH4/cG79Vo6OhTHCIpYtThWiRHNsRe73CPuB9tmvUuArpwXCFjGg14TqBTdSlrIqLM93GLz9yX5TseEY++/i5vXr0oXwxPPPIvHn3oOO/Y+Bqc/rAh9Xb1VgEUxqJl3uCFXuR/QaudP6tfYHmT6DvkrbKb/5IOA5kq7jOUYCXIuoQCIaWdRk5olImg/iEbpRO7RVOiZJtaVtkmffvv10qbXfU2U3YwxuusUVRT5rk6/83qn8GjGfk9ptiRt7Qasup4cbTo+umQp4uKi30NFZyp5Mv2N686tu4eQ0Zw8j5pn4zGIe6o+5wcvny5AJBuxHsxETb/hHpqI8P4p4UMBVued13FX5BrW2cd0mfPpoRIlmu/V6/KA9cZ6EA4GZdFkUwkBLHIK1MvIrmGqglqqsC662sBr2dxu2HVaKO4L0hnfUmClbYbblcHOVtK5iPdY8ALNEqUwpaL7ghqXJREWoxRGE3qSCwGLlcFbN68Jd7WwNAlvxIr9zw1hfBejK+qJ776zrJTGl/KYvhrHzJUE1hYLKNcaSBZqyJYUj0LQCnhsCLgcCIcC6InFcPjJ57D/4OPYvmM3XBTAdo8jN4AlbTxe1c9nZtkZwKqU2lKIh+nhMyJQUfJzyo+AuOawmGRxorTMaGSq2QGU9cxEeysQYL929SKOHX0Xs3em0dvfjxdefhVPv/AyIoOjsHM8mZGbSFSo0lgC4yO7Rhig5bUgiBtf/mYTH7/rbhd3JMXVZStOzlEEPIFMiSeNwNEAmcYU0S9xEzUGV2RgHNKW1D2vT7XjtNNAwzdpLkpJK9TfkehEgEh5c/Gl/JlDzyqUiEvbvCjA0kAqFUn1b/NeZlSYAiP93hxn1gVYG8HCVA9VRKYqjIbTMlFht/bqQdtHN18laXTXL8jxC3BuADEjVn0w6b4Jh6XFoBuf642AJfMFtVBUWnD4qcGKQlFpw+FgCY8H0UhYOKxCPotMMoFsMiG9XeQ/5KJIKqiipW7wEuAyfJb5mdOp0kE3SXcClhrxxZRQPruqGZ1dpFOluNcGIYClh0TwIaVyXZHu1D0RsLQ7ggB1Q4jdTz4+gbOnT6JUTWBsVwTbDvaif3TzKIjHQiAo5ipIrRRx/cyypIiZZBmZogIsRlo8HRc5LZcVQa8TIZ8X41smsGPXHgEtkvHUcPHcO5AA1R8ojdK6P5A/5LFK60pR0izVd/jgLbK9xoTH4mgyNXxCLUACluILRQ+2YQUbXkI94GpbZupM0PrgyE9w6cI55PMZ7HvscTz53IvY8/gzCEX6JJU1fKEMUhV7obuHW9wnwFIBrTzBqruBx83jlyvfaOKTo8FNyXWmhOrXlKhS/t2lherattu/rxkDARsp9CiOvcNea/M8c83kPdvk+froS4aualrErFmbAVGJANtS7bsAqxv82scsmKCvne4fNA4KbZcJTdwLOLcHBisc7gYsvr9ZaebetiuBhhde7w247hYpODEFgi7f/u5XmSrpQwGWukLq1+/TxmMAq9vzqq27Er8rJWVQjgxlqRDSRoRgFRA3UasQn9lUErlMGg22xmgnBgNWCqDUcAnpRt+E0xL3UIcTdmm10f5WBCzm89LEqo319HmpM+vYPd6DBlIpvpgEWgGSzDYHWnwvI2uQNh6lYCb3dvHCGRx57y3Mzt6GO9AQon1wSwihHs+9gwJLC416E/VKAzfOrYg2a3E6g3yhhlypjkSxjkpd5SKMtPwuG4JuOwJ+L4aHhmXiDEGLQtNQMAwb1fvGvkPaeHSFU6IhxXGI/KDLiuaRAEueMita5LL44Ks8QzVdE0w2GZrRASyNZHIcTfGn+vjkMZmgc+XSBeGy9hw8iE+/+iUMjm2D1x8SCYaasF1WYHUfwn3jQ7Nu/TNFks3HoYwVuQIaDXzyfp+Kntr2wOpJabYowlWbpX4QhOhW/20QWfFYxkq4zWWZlFinZeY4LGw30QN6zbGSJTAWwe2HmIAiHJQWOZv3kTS18z0ZimrRaSUPWo8FU6IedYzilaUBV7Fp6plW0SKBVQ+B1f17yiy8A54CVrp/0gCnDM7olDdlSrPZ8uR6CFmqqHnlRqFvmzxovIdqE5BI0jyT0mliChdG5cp0+YFTczaURroIwnULoMt8jn+Y/FV7KKpuw5FWHK1qZ2WQXAVdRAf6euGw2SUdTMXXBKxKhYI8TDyDTvqnIiwBL81lGfBqv0aqhfy5+pSyr2nA1Du6EdwZHkuukVZOm/3vvjEGLzSjF93O345MtASB5xVfW5FJMO+8/UNU6jn0jnpw6FNjCEbdcHupJ1q3yazfcXTYvzqXxdxNxWdlUxXkCjUkC3Xkq01UalQoW+C2WxRoeRwIBzyIhMPYu/8xHDj4OPbuP4RgKCQeWyLkNXY3YvZnF0JT9GOMhiocdEpOZD0nea+jVIffOQnh97oLNG17X/UO3amg/KZ8Q5EmZhoM/5Pp4JVL5/D+kbck6orGYnjlC1/Grn2HMDA0rsBQ+6DdF6y6Ntf7Vj0Jtua4Wy2cOjEix9uRL6jJL+SweBKGJNfPlY5GlV5ONld9XdQaM/ugFlNuiJD4sKoWwM4WoSKsDsDIsdC3SjcUd4pD6s3VoWtHBP23Fd+r2HBDyMudsjRhb7HQo3ogpZ1P30KZCmQqhxRFN5rSH1mniWsDqNoUmCl5hmLbWZHk+xEolQurchamqwLfV6qkcp+bMjG1DeusmMr3JGVpryMBMxZr6OZB7o2uxDKNzibvxznVDwdYm624DSt5XTrISohWtZsIS4GVGtvFNhwCFs/H5/VgINYj4ESQYoRVyOdQKZXVYmZ1RaeC3SCl/m2AS0daOtoylUFjmSwhcZeiXVpq9PHLDiUiSq4cvXvqCdH35UZE0a3T5a6JyXw/Ro+cYHzqow/w4dF34O+xY3RXGPufH4bbYxcJxwM/LEAxVwVB68bpJSzPZpFYKyFXbiBTYuWwISDEcrlTg5bfbUfQ68Dw0Ai2bd+JQ4efkkpi/8Cg8qkXXoVtPKpRWgCLaaB8GqX+ZlDdSZc7x2327A1nsi4S77xXG7Bkl1CN1bocpgfcqr/BwSKUORw/dgSTN6+LBu+p557H408+hz37HtebT1ekv8mF3GwvuN8GZAYp8H6fOrm1jbCySpTNQntE2zo7FN1nyu+p1hWtct+gw+PDTfmKMkQxlika4DQIdk9WVpy5SpXNcbNLw/BFQvbrAKG7cVitcxVBiTrfBLB6c1C9eDxOZfBHwHI1mM5ZUaJknUaS9SZyjhYCVQtqtNQn/UDAsjZhbVpgI3ighYZVDfawNVWfrBy/TncbNiscjRYathbKzQZcYsesdH/Sn+iwoFItww4CEb3LuC51I3ajhpLLDU+V0WMddbsVlqoN9oYVhVZ1I2BttjAf+GhtaAhVbQdtwGJlsO0mSilDWcCKoMVhqEE6ioaCkkLlslnRxZSLJakmcu1vxlfZqO4VELOJd3YboLoriJrPUvl7J2yW/axr9coC1FYqEoHwNsigTu1McK8HYl0qot7QvC+rg+dOn8THJ4/j7OmPMLY7iq37Y9jxOAcr6Fagh+GJWqpqOHNNyRwWpjIoVxpIFepIFuuoNYyBWgtu4bRsCHts0t7EIgbbeR4//JREXAF/CHamP7rSJcUCHrDRXt03srrXuuh0+qk9rRsq2ol21xXkls7GZLqOutqAJSmpDPxQFiT0yWKUdfLEh+JbNTo+hmee/xSef+GzIpJV3NzmkaCKJKSfphPhiG/V/ZvATfp18pQCrDZJ3V4sSgzcvXZUNU7jm/4BgUUtIvUzFWkpW2b9A/19lTrLhqztlEUQKkr59e/J7zGOkddyXesMSRHTWv/VRVIzGjFrXuQScu567oFOCPk3apYWPDV1riWLMhVg5VGc783cTn0sBDhGWLamVQGWrYZmi6BLtwlGWrITyf9K1ibc9RaqDivyqKKWyqPPHxEpBJud61YLrt6+hYmRUYTsTqFV+BzSzDOdLeL0nSm89thjsLYaaFqbsHCQutWO07dvrZ+ac7805X6w1dZdGb92RlicMyhCUWUhY6IrIdvL5LAq0jMY9nvhc7tkCg57BjlrkL5Y9CgyLThtrspul1YbtjQoKYMWjpoojIBliHkzX3AdWGldi4nV24SxC1aS6Dq5ZsohFSj2w3UNW7hvmqgXJ4sLmXQSR4+8hfNnP8H01A3sfXoQW/f3St/gfdOTTS5ypVxDeq2IG2eWRQWfS1WQLtSQ1gQ8QUuA3QI4bBb4nFYEPXaE/R70RKPYs2c/Djx2WMCLbqYOkszqkVn3YK3/0woMDGfX4S8VoHQ9p/dbFnf9TDKJdhuP6jtUbTxqSKzRVLGnb3V1GSc+eE9adii+pfr95c9+AbGefrjd5ADvjqPkO9yt9eSc9vuzkrhB0HuvAz9xbKvuHexwU4Lr7V43szmpAbcSBelNUVXQ9EguA5jyh1TNv8PdaJ5KDO5URNTWUrXb5owAVKWkTI9Y61ajuQyfxbvUpZsjU9HtEy8kv5LLMICSHj9GQxrQyqjDU1f9t2UHoy4rHJUGHE4rUs0qPBYHXDULKnalARRvrqYF9VoZFgd7He2wNqxw0XlCX/tKowqrvQVny4a8FbiVWkN8cRkv797HoxeXiorbirePfYTHHtuLLX4/LE3l91a2tLCUyODjtRm8vv0AAlYLKs06XE2g4rThxM2b3VNzZFu4L7dyr5ss6aDaVtSARUZYG73atfUxIywCEqOu/khYIizGNRSJZtIZ4S3E80pP3m1XBQWs7EKkM1JQPkK8QaoCs5HTEilDOxVUyL8+/9cbAiUKLPeboQdSsWjK8AkpyZuy+YamzM2uBd9fHraVRfz4zTdw/fpFpDOrOPSpUUzsiSHSz0Ea66ifBz7wJKMrlTqmLq1h8tIalmcySGepzWogVayjXFPX3pSzCVoBlw0Bjx0BD9PDYWzfvlOmKU9sZXo43G5gvfcfV35YLWloVnbDQlHIMFc1+uyn+ZCJOST9xcnUCEGVkyklJ6K2172CjMJJvtNZYXrqlghkX3r5VWzdugvBYPguwGpHVsZ4UBxetacTj5cVXO0Ndr9j/+jDCfmxRFhGjkHOpyu0MtFLJ4pSfI0hjbvbXhQprtpKFMUh767AS4+wE3sZzUOx4dmkgsYxQvh/GQ+nxZ961Ja89zo7A+UWapNm7Y4lM4+LmYgIP0WArPaKutMCR0VFnwUr5wxUEXKodrYP52/hQO8YhltOlNxWnJm+DUurgsG+EHqiQcTTKbRydYz3bIWzZUG9WUPNbcO1uRk8PjAuqV/GUcfltSVUizU8O7FV2u18bg+y9QqOXDiD7Tu2YYvDD1SbaNksaHhsuHL7Nm43E3h14hBcRQvKzTo8Fitytiomc2t/GxbJWnwo2zHLq+wb1LMGZYpzTUkZBLAUd0WLY4LCUCyKgNslvFYmnZYIi6khpRBykbtlDA67SBUcHh/stDTWgMU2G5tuaG73E2qZQ7tXUHL6Lmqzq4RhcbtlCEVbmKirFQQr9anI6G4+4V4LnoucvWkkjn/wxt9gbv4WLM4qDn96DKM7ovD6XPcYCrr5O3azRCuzWdy5nsT1M0tIJ8oolRtYy1eRrzRRE/zoRBzktBhpRXx2BNxORMNhibIeO/wUDh1+Gh5OCLLRO+ueW1C7jUem8Wi+yYzLkrmEj9IOo9eGcl/1KLW9sSvR1TlplmangOYDeWR0VDh/7jSOvf+OVAyffPp5HH7iWfT1DdxFL5odXjYf2YAo1dQRHNdTqaAjZqVsv9fHR++blFBpjmQjEHl4ZwCpqcyJ5EblZKpyJmtMRaB8DgzwqUbm9emjAArBXzinTm8fx3ExlDHWSWyC53u2R4tpGxrFbqmfmQ9x2m01BJBM0U5xtFS4W5U5aaMpPDE7Jc7fvo7hSAyD/b24tjiN+bl5vPrksyihhTeunsHre57ARMODjLWOD1ZuwuNs4H/7X/9HPPPs4zhz6Qz+zf/8/2J7eAucTPWswKqljL/4wRv45uvfQMvawlRhBf/52LsYmxhHoNxETyCEzNoaouMDmEwuwu8LIpC3wE5vLu6JITem0itYs6YxXg7h0Og+XL5zB1u3jmMpv4icnX2p/z893deR7dqmQvirrinOBCQq1hV3VRakp/VxXyQEt90minBGV/lcVqQOjK5E29EFWBJZudxwuDndhimh0lfZ2DJB0NJVlHZPYZfpWLv0q3NsXbyRPEoASxqZSQ3yQ1VoBKwkyno0wFpeWpAWnLfe/B6SmQWE+hw4+MIIBsfJIT0E2b5p6AbkMxUh4K+cXMTKXE60WalSHdlyA4WKkVzrM5D0EKLTCrGVx+9Bf18/du3eKx5Q27bvRk+sd51Oq/vPSsWP7TsikKXjaFeEpT3dFff1kNN4NgGsTt+hkoEQDKW1SevueM+oy7p18yre/tH3BQy2bd+Blz79OYyMbpEiwrpj5n+wKmzuJyM4jeMi7KXOjCm+TIG+98dH72rS3XCSzPyENCIHpNInWSUSoiiDPX6IEl79QEVRGihYkVNl+44cUwq2sgi7xJEad2xSOeT3pTym/pZJAzWp3gYondpJtZC24pLu0X2jhrLDIu1pifgafF4bTp2bxr79O8XN98K5c3jh+Sdx5PxlHBrdguFIADdW5zAzM41Xn3wR5xbmcGJ5Hi9vPYhRqw1z1SROLV1BLBDFn/7JP8XUnROoN0I48+0z6C27EIAT1QYwV83j2yeP4pe/+FW8ceRHsIfcuHT7AoaH+vFzT7+Cycu3sXfPTtxemsV0fAEerwdPbdmD7Ooa/B4v0o0iFlIrWCuuod8bRizSj5XlJdgcdlQdQN3r2Ayw7l+B2Xir1wMWAVzLGTR/tZ67KqNcKks+HPR5hb8ifcroKpvNCnCR7zI7kxDqWp5gp3rdRQW7V6IDI22Q3L5Zg02GqWojNOM42m3v0aWBadOfXAiyIyvQard+dAOWCB81gXrfpa4WMcWidGb44Mg7qLTSGNkRwq7D/WIj80jju7r/lhhCNJFJlnDj7ApmbySwcieLXKWBTFGlhsYXVT0HKvVw2SHpYdDtgN/jxMjIsKRWTz71nOi06CHfjha6PGPUEAqliqdEpLt6KgJZmcZDhflDApbeCCTCIgjS2UGDoBJsNpQqnm08XbYtxWIe83N3JL2mV1YoHMLnX/8qtm7bBYfcr86HcL7SJsShtfTP14NUNa9KnZkSm6r1da+P998ZbwOSMXhU8QqjISN3UCtI+T5p8OJLxFmH39O8k1T6dUTHKlmXnkl8ynWEZTgw3gK7eGDxd3TVUavblQuEAbgu0NSvtNstqFfK8nAXm8BKMo/TF85joCeCvbvGcf3mdTzx5ONIp5KYvj2Np59+HD/86CMcHBuDrVLEdHJBNIvBhgtxBzDVqMBfsCLcBLIuIF5P4sD2bfid3/oyPI4CHjv4Cn7jy/8tfuGZV9AoVtFw2HB2ZQZHr56Bt1GFtzeMdK2AEx8fxzNPP4Et/jACXp8aTOy0YzG5iqHBATRTOQRcATEDLDSb8EaCuDR5BSPRGBqVOqx2K+qtJgLBMAr3HvO1eQVms5vcEYsqwZxyZmiuGy4hIlEdYfErrY/7wmG4HTZRWaeSKbFApruozBrUHIKQ6xq0CFgOttsIYHV0VlLuZYRVr6lm0vZ0HOPE0FXB0zxEG7C6SWAKQbWWRHZktqowymo37j4ArbRR4aWLZ/HxyQ9x/swpOAM17Hi8H+O7exDu8dw3FXnwuwPlUk0qhbcvrGDy4irK5QbSxTrihZrscAz5tX2egQhRxPucNkS8doR8HkQiITz93Esiedi777G2V3x3ytIGLE6gaVvGGFcKikw7qvj7pVd3bW4ChAQstxKZyv3QpLsAlpKymA/yoHQJPfrejzEzfRvVcglf+urPiyeYz6cU6eZDAIvq9W7AMu8vERbvJyOs+wPWkXe2aL6qEymJyy0j+Q1dvW0D0u6qM03t6LWuiXaREEjJX1fRNGipjcVYyHSqj9JQLGJKLmamfNRN6e/xZGUQrG7Z4d9i1MeMptmA3WnD5Oo8Ls7PIuyPiOOJx+HEjq3jmJw8g77+fqwtrsHtdqJariFDEwBLHYPRIKqNMpaTSWyb2I5Eq4JzucGXUwAAIABJREFUs3cw3jeG1GIcrmgUs8uzePWFw/iNX3sN3/zv/y76oztQTbjwS5/7knCbp69fwkcz17FmLWJvfxhXJm9jORVHpCcKl82BgUgEY6MjUu1stWryvAcDXkS9btgaTGVtqLWcqLZsyDYrCHG3ZTTfbKJMTtxiQ2Xd1Bx9MRTx/tMAlsrTBazaswbJX6kWHDqK8it7A1kVHOyJiuqchmoELGMjY5Tt3NlNhCX/1oDVSQl1mw4XEi+8XPwOYBntldrV9LLu0rWo77RkMrOkPU6W2W2q/UvP35PFbcrU3bv5hidRGI5mU7g4KrVPfPgeZmZuIjLowN5nh9E/GhArmUepwsrDaI5XHz+jrGyqjNsXVqVqyIgrnatKxZAWNAQs5QBgzpkPj9FpWeF12sUMcGx8Qvy0yGlFZQ5iQIBLihrsDGAE6/bAyvFhZoqQDA7Qzg46ddtMxX4/4BV44fvJVBummmrCtqTdJPQlXesCIco6smnxyrp6+QJWlhfxxa9+HXv3HUIk0tNWabdBi+kZez0dOsoSCkuP+TLODnpDvNdxvvMTRborkp2LgRdT2+OYlEzfF6Xa7hR0BDPVslJclmCUqhoSeFQPoHFmMAS8/oV1YlVGr3oKjgy30A3NuoeQQC6Tmekz36TGqQW7y46atYX3z3+ArDUHv9OJZrkCa9OKVDKDcNiCYCiMVtUmZpB0sJ6LJ8EtItrrQ5Vi7XodeWsLhVoR2UoZTl8QpVQJ9aYF23bsw9ryBXxy7AfocUfxyqe/inKugV0TO3Dx/Hn0jw/g8tIdFN11lJdXJIoimRZfWUbMzwHBHhzYfwhXrl7G8PCARGWhiBvF/BrQrMLvDeLdd47jV37hNzCbi2PqxmXcunYBh598HJFIHybnl5Gpr+Owuo35HhKwdHXQRFlK3U7AooWM9munSZ9EVxzRpVpXaH88GIuiWi6jkM8jnU4J2U5ynh9tNbtJCWlzzP5AlwcOj1fGXon1MaMppoKNmpCNwhR06a9UK8O9wEoDlpLSd9wy+e06W0rYV2eoy/XLeyNZzUVLIM7lMuI4cOyDd5DJrWFomx8HXxxFMOqRYROPDlhqccv1bbRQrzdlWAXbdW6dXxEv+FyuikJNKd+lrK7Lz5Lq6fOXTiKbRT4dNis8Hq94xe/etw99fYNiuez2eOBye0TnxE+nLwAXF5oUOViZtStjQvHPKj+y26e52qJ1M9VHzeMIr8QWoQ1EPs+BNMHVK+dx7vQpcW39wpe+JnMLe2L9In0hICmAsao2JA7kcNLuxq3QQ1p5aoqP3GDZfFcECODtn0yorgDtPCDLx4g2deOzAbM6h/hqe25CkpkDKHotiZ7UWbOSraIzgpvhtFS1jpKN9bbDCuQUz6Utoqlz4ms5lILcrU3ZK9cp5+EuVavD4bQhaSnjzMVTqCIBVPOYGBpCOl2CLxhBprSEcDSMxHIaI6Pb4LbZsZqyYr6chNfvQiuRRNHaQMbtQC6+InKJeD6OXDqPtTtx/OqvfxPf+ut/hPTaFPzWLfjlb/waFtdmMXVzEqODIxgdH8dUfBklikLXsig3SgL0xWQc0WAIIU8Ie/btxc3pm3jvyLt44rHHMdg/JLrLZj0jPm9rSxl85fWfw5W1ZZx4/y3MTV3G9p3b4PH2oFGs4+rM1Y6sQelrzKN47ypK901up4Naddt2FTWtOKJsV46ipZJKC10OmzTr9kdCyOcLIhbNZtLyGlYPueuKgl33ClIVLhVB7v58cAhYrBIyXSRASXTF6SOqDcHc/A7Rfm/Aaj8gepdUtWa1yO6nNTLRjzwoejdmMWFlZQHvv/cTfHTsCGzuOrbsjeDAC8NweRxto777RSDdPxPtD22S603UKuwCqIryPZ+qiOp9aSaNbKIkxn8iJVEUh+aktHay6w0VgJmfW+FyOuH1+wS8OKXH7XbD6/XB6/MjEAgiEO1BKNaLSO8gwj29CIQjcNvtUhGyCTGuJ/R2tWQ9zLkZ+YHxIVu/7ta/A4+ZSvfbN6/i41PHcOXiebzy+Z+RlDAc6VESGBZp0BK7aB67x+tXhRkBLMoa2CvJYbLcgO4xnqxLGvC9H6uUUEBpkybf7iO0MfJqX1Otx2rLCYwUQvX32S120L9Kd9OhYWmIpko2RwE9tVHXHVbUyyWZy1mp12TgiL1lRSKfQi4dx5aRrSIjzVfzOHP6Al59/kU4GjU0UEe8XsGlG5cw0EtVaA6xaAjZSgnpUg23Zy6iVq5i57YDuLO4ilQ+j217nkLZWsfs3BxidjdCvTFkrDXkFtNIJmbx/kdHUciUMRYdwn/z976JN37wxxgdieDA3ucxO7so57W2uij9gF/43Ovyvic/Po+wN4iWjWlqBYtzU3DUq3jtpU9hePsETl46i7W1NQz19KI3PACn1YN8LYlw0I+ecA/cjgBmszn43IwyS6hXSnDSK88Vhdfj0lNzDFGrLv8D1l13yK53/64R9OuHo5pWHKVsJ3gFPG6E/B5E/D6RMdD8n9VB/oztORIhSDrIQRK2Dl/F/6b+ykUnhg5gyew22nToAaltwNIVwe4z6tbSCCxt0LCsA4x7XIe23kdby4iIjzqWfA4z07fEbYDaoXC/A1sPxEQ0SmV+p2l2HeTfda3Z2lmr1FEu1gSgCtmKfNLnvZSroliooZCpSNWwWuIE7KYAljHQ0LjVLhQojZzm8Qx2S+VJHRM3BHqQORx2eTgIZBx84SF4+WnhHEVQPiMIB0IIBQIIBgLw+/zw+nwSjTGNfNiCwl3R6X1Wm+jaKmXcuTOJk8ffx+lTx2WWYCzWJ6Q7oy+m4fwg2HI0Gqc4R3r6EOnphT8Qkl5VriXh9jbRcbTLKbpp+dtvbpH3EyGnDs8lzdZyFwNQvK5OHYUJsMlmqTY7oRrEgkZNi5Y2GaZuTaboQN3O1ro6mo2a9NByI2d24vV78dH5Mzi0Zw8iPh++88Pv4wuvvQpX04Grq3dQT69h/65DqDYcWC2u4NbUHD7z5LOwlyuwO+2YTq/i8uwVZJYvo5RbQ62ex1JqFbGhYQz3BfHxh6fxd77+DbS8UcxXylhLpjEQikna2x8dwMrsInZt34lSpYhI2It8LiNDTa1WH1aL83B73MikVhDyBeHzhLC2loc/4IMvAOSyBQR9A5i+tYJcOYun9+zF7ZU7uHztHH7mqefgCziwlIrLJnj5xjWRNzxx8IDYg9+ZnUU4FsHQ6Bhq5RrWcgm47U7R3y0s38HnPvMiFpJlOOgqZpqftR3bfcGqs/S7TRs0dyWDUo3nFdNBBVaq2VnJGRhB9dBV1OcRPiXF6mAmi0KxiIYeT0/gURVAu7g3mBYcEYaKC4MWkDLC0sNQ1SDVzvBUkw7pkKINw/eD4m7N073cCuQ10nfI/Nx4SnHuXV0cUq9euSgp4aULH2NoewDbDvRix6H+dtSzbjMQx051ubn4m/WWWOWWC3XkMmVkEiWkVgvIxEvIJsso52sSTdVr5KpU+xMfDenAou5HBhtIsUVHXJokbz+nneKDrrrL5mQ4L3EJUMOT25Eqr7/D6YLH6xV/dU7vicV60d8/iFhvn0gjwmFyYH5JKTmpSPVv6hL+PbRaDxvH8z5WalWZXUhe8PiRn8hDI605dAwtl1GrcZpSU4CW07Ojvb0YGh7F0MgYBgdHEI3G4A8E4aR7h82hZQnqWgiQC+GnfK/YAvOt7w61+06FRpSrpNpnTPpJEOImwZ4B9Rr+H8lx7RIKagipezJnypiIPXt6grODjhs53F6dw/z8IsaHh9Gq1LFnxy4cOfEOPvPCC3DYnHjnxAf47IsvIdB04szUdbSqaRzY8wRuTa9irbqGQn4Fj+1+GrV8E6lSDpPJW2g5EshOnsbI8DDmp6YxOjqBpaVV2O0pxKK9uHgrgRdf/wqmEwXEkxlMjG+RRVMtlNCs1bGysoLTHx3Fl7/wMzj+0XH0xfrxs1/5JSykrsNmb2F+fkaqO72xIZSyNeG3du3eIs9xtKcfN65PY61WxUgoihuTN5EtZdHv8eP1V57H0tIs/JEQZmZnUKs20NczqOG9Dq/fjWDEh3K5gHi8AY+LVkVNNKpl4dyqlpZsPo/e/KwhzaiA5WGjMlzLGchdifeV9r2i/qpULrUjqP5oGH5qZdBEOpNFrlBAqVyREi95DFGu63TQgJSSMXS5NOj/5s5peg2NsZoK53XqI3G2niAsT7W2O3lQEHkP2Bb+VQh6emHRnoX7Lq1UqkitLuP8xyfw0fGjuHH9AiYOxLBtfy8m9sbWz9Zrv7eKigg0lVINuVQZqdWS8FJsxSFI8fu0TeYkNj6UdGak62iNViz6K61+KRzlwyE929rpQWFF9xbTOakuWk+39fCBVGDFDYNEPbkuO3kvu1XSEw4IcbmcYg7ocXvgDwYRDkcQ6+sXYBgcGkXvwKBEYx6fT/Fd4qzQ4QEfxrZmXZRrs6HabCKeiuP40Xdw9MffF4cPr8cnYMl7zaJONqM6JDjNmd9zez0yQZtjvAhew2NbMDQ0gp5or3Zk5cgwJcc0RQCxCWo18OffinXiUbOOtItFx21UCUOdmpiX6NnQvrrwQQyUKU9dPu/2ppryXLdnce7yCSRrabjsXgzEemFvWLBz63YcO3UUI0P9sLe8WM2m4He5UF2NwxIJoJxfQ2/vKPINJyruKoKuChLxGppVO+6szcEWtSAabaBw6xwsFgdWFlYxEO0TYarD1YLV5kXv+B7AE8VCtgJ/wIVyISOSor7eHiTjScRiUfjsLngdXom8mtUWIqFeLCauwe6wwOd1ioFfq2GF0+VGrpiT75VrFRGCcr2ymh+wuNCyW1BBC05md9UK1hJLiPVFYXXakCvU4Xf4ZEKP1+dFOp8WW4p6o4rlQho1mfOgKq4MUlrsKRTv+oe2l+l+yo26XX81zc7S6KyiK4mwtEkfCXeS0lwiAz1ReJ1OsZLJ5PPIF0uoSKMxS8dqdiAfHrvuD1QSBuV9ZTRZbfDqanxut0sYVbvwXvQ6UqPW+f5S9WMbyKOotLufIF4wVrjcPu3uoHfqWhlri/M4efRtnDl1HDMzN7DryQFM7IthZFvkLsCSamq9KbwU07t0nNFUUT7Z7FzMViUlZFuOmcCleCo2lQM1+r9r0CKAVTWQEbwk+ror+1l/79ppsjEyNOS8bniVKFeT90xhCFwEMQEyDWDc7Xxer9jXMOrq7R/EAEFrcEj+HQgE4CWJ76AfmZnV/QC2YcOP6VVFYjmZSeOT4+/jo6M/kUgv1tuP4eFRiXrq7JLIpJBMxGU4ajqdBMeqccNkamtAla8fGBwWEAuFo+Lh7vb6Yff4RQohkVaziX/3n4KdQo2pFlIbpj2KO9VDRlacu9gZHsHDl4KRTinFVI+ApSeY2khXAVjN3MRS6ga87gacThfmZhfQrJAKaGBm7jqeeuowDu5/AZ9cvoznDz4GJJL46PpFDA2GEesdxUKuiqXaKhzFJnL5DEZHB7CSXEW2UoXXXkdrZRb9w+Nwe4Lw2Oxw8V56QmhYnEjkC0gXK4gXsiiX0ti2fatQM7VaWd5rfHwbApYAfI6g9J06xFqnhuXlGUR7wqiU8vBQt2hxSM9hoVqAz+NDOpuQlJZBAR1YfGULrA43cmyba1jg84cxOX0Nxz58G1/92a/BFxpEtdhAwOZAsVqGw+VGqVJBKBDBman3MTG8FRZ7E41yHS63C3VUUSV3em/AUuGsaHJUfbZrOTElUe0zEmF1iUXbgKXbcVgZLJVKQn5y1x7sicBF3/ZSCdliCUXxdVflbNnz2ENInx0akZHL0mp3fjWgRceDbvfRdmXQEKDkLFgtcpvpMDbVF1Ytib6qPdKqqz/sgY8SH25KIERH5NP8hnriG7UyluemceTN7+LS2U+wsjqD/c+PYMuemLiLKh5JM0ktVvCbKBaqiC/khEBnfyBTP3JWTA0VT6auuDAiJs0jILVUNKXASQ1TYLRFAKuS/6qT09LVxbakY31Iabi7do1B3eh1l8CkjWIIR7CyWeGiN5LdCpdDRWBOA2IOu6SE0Z5eDI1twfi2nRib2IrBgUH0hMI6Heu4nz7wWuvztrpcaNhsSGezuHr+DK5dOI2tu/ZhfGIbRoZGpeBCwCJA0X+MXQbzszOYm7uDpYV5kUSYynM4HEb/4KAc18TWHRgZ24rY4Ci84R44vWp4B9ffv/0z6uW6olFNoivRaOcaKVJeiUmVzbGIW6RFRxgzE53pCKtlacLZkKZAzC6fxWrhBmzZFTWdHA6MjW9DrW5BOrcqLVy1RgBrhSLGoz2I1OuYSqxgy/YBxJMUeWaRtuexPbgNQBofHv+BtF95faMYHhjGrt4Y6g4n5pcSCAScsDk4iCKEfKWAteQi4qkknB4LIoFBkahWuOEmliVqjEWj6PVG4XcHpGqcSqygt9ePYr6AQMCLWrUMH1urbC5YbU60bE40aFfNBmsnh+NmkMzEgUQJ/kgMZacXHocHzlYN9UoKf/7v/xi/8uu/hhp8mFlexa5dE8gX6nC4eA/cWF5LYaCnKXMf+HdII83emcfw2BDKjbvsZTZZSu2btBGwCFYKtO5l1GfEogQsvg0jq95wSB4ApoL5UgWlSlVSSFkQopVTgCWg1fbB6oDVOtAyswhl3lqnCiZDFpwu8RmXEnrbtld5jLeqNT078GEeHf0anr4AFt+XTcy6TG0lDhYxN30Lb3/3W7h59QJyhRUx6xvb2SMNz+1qaqOFXJqpX1H5Wy3l5d+lfA31KtuZzCagkjkTCZkJ02brNw3mjMAIXgbACF4ErTJlDrT3ELuWbnfHRzjfrtM24Kk6CRRxrNJGlTK6nTa4nXbR15FHIvnd09uHwaFhjI2Ni2Uz+//8/oDwT+Z+3O9oJMNyudByOFCu1JCMryIVX0WsfwjBQBAepgnagpnrj3wpK4qsOifiq9LSsbgwKyC2urIsVWj+XbaDEFhjfQMYHB3H4MgW9A2PIRyNSfT2Z98dQkuAiODDpNEONOglpmw2KXpUfvl2OCx1tCx5WFpOtOqUUlTRtFKa41NGeSjCTr5T5JJ12OGE01LBubM/QjBYQMAWQGAkhIW5FQx4hlF1WZApLiHk9aPhCuPazRs4dOAQasUKMqslZByrWMguoNyqw2ELAZU4PKUyTrzxLTg9Aex5+WUUynU8uX0/Bvq2Yi2VR9nbQN1ZRTVZxI1bNzE6MS5tcC6XA5VKQ3R4nLCeL+YxNzeH/t4+uOlkGxqA39cLq62OxNIUbJaqLL9wKIT5+XmMjo3JQJOWw4lioYjUYgEOZx1V6yJGaj4U7DTis6NRsSIa6IW3VMCZD95CbuoWmi47Rp56Fq7BQQR6IihmaxgZ24W5TBq3VlbgzGUQjkbh97ok1aQPvcdLGonP7YNSQgGsu0kfaVCWKIv+5UosSn7BuIoaK2SS7QQsciDUX7Edh7qWTK6AIsd8VZn60CpWEee8tVTusjeQHFWbeDctOiY1NHMIdX9XuxRN0OM8QjNwoR0dcnagGnZqZvA9EpXFDZV6LXrFS4SlW96pFcqmMXXjKn70N3+OuTs30EAOj39mHMPbIgiEPQJE5KPy6QrWFnLSC8i+QPJWpUKn9YcPsHByrI46HRIKM61xe1xwOKk9U3bPkhrWGyrlLvGTLU/UunFsWk0Ai4MrygQtyiJI3f10Rhwdxq2rPclsLiZFZLO1i5GXBjD2q/n9PiHpB4eHZUr16NgW4brCkagIVcUN9j4RrgAWrXAogIRNqIZGvQa31yfkdYvRsgxS1Q3IunjBNciIi1IZCk0XF+awMD8roMWUkRVpvrfT5ZKKYu/AMPoHRxAbGJTK4snJL8FKsFLmVLBbHNI61LKp4Q6iKNdV32a5CbuzhnqNinMfrI4GGtYy0PAJF2t3lMVOpQWlCWP05bCUcGf6NJzuAnwuO8puC+LxFDwNNxouB+zWCnKJBIK9wzhz9RoOHTiAudlplKoLGBrdihRBKF+RVG/y6nFMnT0FX62Ear2BktuHicNPItO04fXXv45EqgB3s4nbl8/j0IvPS9TH520lFRfRKUGAivdSKYd8NiGf0XAEqHlx+NlnsbSyKq1m1y9+hMOHHsPAQJ9MYk+lUjKxyen2IxFPYC2ewjd+8beQSK7g47NvyXVr1EqwNeuwcwZBGUhcuwV7MYseuxXlRg0Jqx2v/de/CWdsAt9589sI9flRTK0iG19DjW4j/hA1S4I88UQc0diwSEAeDFhd5d3uHbEbsJSVTMf7Ss0c7DiLsjTNycU9Qb9EWVx46VwexUpNLjSBT9I8iZKaAlbsDWTJfV0/IdNCPrTGx72tu+rMixPgImCx/YMRlkl1JIKn71IFTbaA6CbbR4k5aKXLh4gjrVTLinrokqvLuHHpLL7/1/8BycQ8XP4WDn92HAPjYbg9DgErkulzN5JYmEwjsVSQ761rLdEFJYfLAT99wmIR9A72oaevB9HeCLx+P1weNQ3HgFU2nUNyLYG15TXEl1eRjqdQzBVl8yAxzyiLQyvo6MB/K/7b1OIf5czXKwKMXk9Apc17AS6KUh1WeF1WeCR1tMHpsAswDA6PYtfufdixay+2TGyDl/wRbZrvWUnk060jZYfpPdQTisSDvqj6Ge8h7uXZEbwoN+Hcw9mZKcxMT2J66rZMM6JgkekiNwFq0EKRCKK9fQgd/PdwMuUlKAlHRuEnUKqW2m1MqcwSHI4GLpw7hk8+eQ8HDjyDvtgWFEopvPzpr6BeZQTeQLW5hvPnLuHQwRfhZrRQXsHtGyeRSd5BvZbD1K1TaHijCPiDaOZS2PvE87g5uYBgwI+tu/ZicnEJO3ZsRzoRR8MeRz1lhbtpQSWxgA+PfgfNdBo+axMBmxVVim/9fqQqwMs//8vwjm9HvNpExOaFrwX4/G5Ua02spJPINapi05RYzcs5LsxMolRIopxLIRx0YXxkF5558UXMLi7i/Ln3EfTa0aAkKRCRSJYRGbnBgMuHXCYpcqPPv/4rmF9axptv/xXCXgeKiWX0WAFXpojk7DJ8Njec3HCsLTjcLsS5wTq8CA5tRyJQR9ZVg9/uhYsGlY0SnGLwqDBgeWUV4fCAMiV8UIRlcvHuKEulOCrC2jjV2cwcbBv1lTlsooKA14PeUFBSCUYGrBCWCXKy4DisUimFJR1khCWlYU20m35CbdzXsUBeLxSVFEoAi9NQVErY1gdxw2SERRsTTuvRTbaP9NgS7iln0HY0bODl31uencblc5/gze/8FYqVBMJ9DkkJQzGvSBWWZjJYns5g+U5WoixDqOvuG1GR+0MBRHt7MDg6iP7hAQGrYCQEf9AnOyE9wPiAEyFMVFspV1EqFJHP5ZFYSWB1cQWLs4tYWVhGci2JQqGEskyPbgpomVRR1eIfKb584GVS8giVLjJVdNktAl4epw1+r1u0WxxHxrYgckgT23YKAU5vq3Z0rP+KATFGtJxMpPyzVFXWtE3xHrK/r7uA0kmjFQGoiht1WW80hmTjL3sTl5bmsbK0KCaBbLwvFPPCsRK8dvzMn+PGjcs4fuwoDuw/gGeefEEA5Idvvo0XnnsNkUgYZy98AKe7iLff/hNMTZ3Dp176GezZ8yyuXD2DL7/23yEa3Y35pduIpybFk3D/3qfhDzjxz//F76FencNQnxdRfwy2ZgozK/RQKyLoLACuGF743K9IKry8uiJe88P9g1iangWQg7sBXD5+BEuTpxAMluFtRWCpUZTakI5FJqPNckuqiL4d2/HCL/0yylWr8Jqj/qBElvMc8lKsoNayol4tYnl+DnZLE/l0HInVRTRaRWwdfRpf+4W/gxOfHMP05E0EXE4tG1J83dDQECYnb2OoZwitRhVujxMvvvRFpFIZHPn4TRz2B2CpFHD9xDHY8wV4rdzkvTJL0uW0o8Bp4HCIkLZcr2DZAxz62tfQO3IQXv8QWpU8Ll65hN27tkknAKM6p5PzNEsPAixqhbSPlFngZvimBi2VDlLKYDRY1fZkHOpk2ENYq9ZkWjHV7RwxzhSRlQlyLHXdzClREzkSASuoSuHGNHAD2d4ekNo1OURAizyJABZDce2WzeIA00ECFiuWP1WlUOuwxNHSqUh4AHdu38DF0yfx1g+/i5Ytj/5xv1QJaSeTXCngzrWEpIHZOL2+DKnEAMIhuqJQLCJANbJ1DGPbxtA/MoBoLAqXxw2HUzWAb+bHJVyWTJupIZfJIbESx8KdBczcmsb81BzWllaQzeSRL5SRL6sRYQQuVhZNBeuBSPQILzCaJC4VAS1GWwQth1UsnF1OB2KxGEZGRrF77wEBrZHRcXEQZS+j8d1vmy2K/7xqt6GcRHQX4h5aV/dQq3gkbtxUBKyFFLp6wcifFetEYhVrK8tYWlzA8soi1lZXxCWW0dh8+IuIRPx4/+i7+Nyrr+I73/oufuu3/y4W53N4+onPS3p+7uJ7SOev483v/A0OHtqHRKKI1z73DRz78C3s3v4SXnnl68gWl3D28lGEwv2YGD2E8d4Y/uX/9dsYHKzD2qxKlA17A1v2fxVbxobxnb/6P9A7cggHX/hZNK0VLK/OYbyvH4XVNMZ7xnHpzBs4/pPvIWirwdmwwOH0iuc5DY05to3nT4czRo0NCpnrVkIcvv5f/Q62H3gS2XIa6XQeA4MjYmsMqxOuVgC1KrV2NlQrZQElu6OJSjWDTCktFjc9kahUQhkROly2tlcdiwyBQBjNBmmIBPIZ5VjqCzVx8S//I25eugCfpSkVSqFotF2OGEAz1ZYujoZM367bW8g0gIMvfQmf+eIvoGBX983pdqmpTsykmnbYrYUHAZaWlxiw0jfeRFgyKPU+cwepvxIVb6OBaMAvgMX+QWpmBLDqDbm4Vo6IEv5KWkSlA120WN1K97YOq0t7taEVx5DUatCCHRaXXujsyWILBLu/xfa424zlEZ5IU7VTJSOJ3ki937p+CWc/OYkj7/wY7mADw9u1gImSAAAgAElEQVRDGNgSFI5q6nIcyWUS61U1FlynfowqIlT3jg1jz+P7MLF7K4YnRuHze+DkjiZgaLzouzu4O8fb7jOUaJcLoI5apYbV5VXMTt7BlTOXMXNjCktzS6hU6ZvVEP8sAhe5LRVo/W1GWrqyrMv5EjHryT4y/NXNdNEh8ydJynNQxq69B0SIGmI1UfzaVVTNaFL1jKpmbON8Kp0FRuuhL6Ypaqgro6JHLUPTHlVK/GmATSiMWlX6V9PZtHAkK8vzWF1exJu3fXC7Caw9yOdy8DndwgdGwmOIhQclErt2/SzGt/SgWrGjxKpZIIpimZq5AnzumKQ8hVoBycwigoEQBiP9+OG3/xqfnHsL9uYydm/bjs9+5hdRQwuRkQNIpPKw25roH9yC+UQBdjs3oiwqmTiKiSRqmTzOnn4TtmYB9VIazaoF9boTDUtV1mGdU7BbSljZIJBbG3A6fKi1wihULXj2sy/h8699HpeuXMP2nXtw4tQpWnnB0bLgwP7dOH/hInKFIrL5Ar74xS/I8c4vLcHpcSCZSkl6xkg1GqVEp45bt67B6bKiv29ABMR+rxeVfB2lcgE/+OHfwJNeRSGziDxH9VldyFSLsLCoZGE/KydGqXtYZ0XV7YKT97zlQLXlxrNPfgpPfvkrcFlbspl43BZkxfVhCP5w4MGA1X482qpsvZt1j/Iy0VVde7dr/RUjKea8VOFEg370hYMosjqYy0mITpEpS6lm6ogaKKGM+7p1V0aLJT2Fbc/2Dcp2/eC1H0ACioz5Un5OosOiCwN5j7uaVR4etCTtkCZ+M0wCuHzpLM58fAInPjgKV7CBvhE/7C6b9Potz2RRYQsNAUIKjTb4/D70DfVhy66t2Lp7G8a2jiLa34NASJPRutBhoidFqitradW+ZJVWDGlY9rgF4KhNk/2ECvBiCelkRqKtW5dv4tblG1iYmUcqnZcqUrpUR1FA628/NdzAdskx2aTxGnDb6RhhhY/TfXxeUTD3DQxI8zUrdDJgQnv2U5nudHvg1s3YLtPz6HLB5XQJaU4RK6NUReArhb2awGJVE4G6ph9tBsvt6mK5JOuRE3v+6M1prMXXJEtg5EoOlCm5CHZLLQT8fgR9bjEWPPzsKyi1qnD7/bBbm1ieX0F//zgqzSoWVtfg8TkQ8flx4t0j+Pu/85v4k2/9GfLLl3F45x6M7/m0ROB2XxBTc8uIDY2jUS7JpMCVxCrmZ28gFnAhk0xhdGgIUZ8b5fwSfvzD/4zFxUXpQLC7fWg02QFRlvOlJo5mAtQ89g2O4HOf+zX4/L1wepsYjA3h4sVLiA70oVQpo0bDP4sF/f19mJ+fE97TQ91aoA+DsQgWlhdRrlVFBMz753b5lNLc0kQqHRdQD/gDcDucqJSUBGlpeU5ExtuH+3Hr4nF8/9t/gWKpgXQpi7qFwNqSFjAZMCOV1iZCAR9y+Rr+4T/+Fxjsn0Cj6UDV1kBFCicJNBo1ZJOriPQNgYHhAzmsrv1cuCalC1IclomwZGfXdsiqOqjacRhhMURlhZARFkl3AatsFvl8Ti6sNL+Ku6iafiNRFXfXbqGoRFuqJcfqsCnnR7GW1eKCDUZ9HZA1GrIOyOpeintPN+5KfTfCWLt9R7PNRtzMyc6fnPxQQMvmaSAQcaMsolDVCyggqv3lA+EABkYHsefQXuw8sBsTuyakH4s8Fh92UwEk91XI8ablkFpLIpNiz2VBrhkXuqSS0bB04Id7qMGh24JLrhsrrqKgL1cwfWsa185dxYWPzmFpdgnpTB4ZKutLdfGFX2+y+/DA/civZLov0hY13YcWzuS3SMqLOwRFiuwRlSqpXf5NHZDH7YXX6xVJBEGNX/1+v/p3IKjagtyMSpk+0zPNLc4ejMhUrxLbAJTA8552GVr2wtay3/2HfwmXw4FAKCQPdm+0DyskkMMRlEsNEcROT97C/n07kasFsJhckdI+jzG1sgyvP4rBkUGk0kmsLs8h6HHi5LsfYvnOHH72F76GySsn8PUvfxXpkh+JYgEDwxO4cWcSmXwKHo8V07euY3R8GE2C3tyUVHr7evoxGhhF0FvGX/67/xulWlZElpxAI1mFlcULupXY5HSZgjFB/Jf/5M9QKJLGKMMTCOP8uXPY/9hB6YZwWC3IlytyrXO5JMKhIJq1KlwOJ5pWB1ZWlkV5zoIECwaM3Ajg5BxtVqee2VATP7toeBCJ5BqqjSICvA+UM6QW8cZ/+EPk0wnY7D5MFVKoiysrNxKV3fN+BPwxZIs1/Nbv/U/whfuU0LvFEYAyBEz+Djdo2nozW7O02O/xCHyOuu/r23G6G54JVtI/KA4NCrC8LCEHfAj7vMjJZJycNK4yzOR7maofW3A6QKXEocatQZwauKBJeIuHthq6qCaIKNCTXbQrxTHCS+F/HtDXJuDTMZJSr++SjBtw6n5QRQ7abMn8wVMn3sfF82dRa5QlumpUm9L3xyhJ+AXyVV63ANWew/vkK3kqqoNlApDWuzGvZ/VvdXENUzemMDc9h8W5ZaRTdGTl8Fl6IVlFRxOOBNE/2IeRLUOY2DGBobEhRPuiOuJQbT+FfAGrS6s4d/yMpIg3L99CqVJHtqSGslJ0SjHqf5kPPUeR031cCrj87o44WPlj6cuuaQEjHmYk5XRQXc32IDZnewSw+ACFwmFEor3iKhHpG0CA0olgSASrIp9id4M2YtysKmnuLX/2D/6fH8m9ouyGwJcvVGC1NTHU349mg3SEDfOLdxAOeQF3H+bicbJI6O8fgt/hEqlODXUUCimUMwkMR8K4c+0yblw+jWKzhljIjYg/hJdf/0XUbH1I5bNYTSVQqWYlDYwEPJidnkSlXoQvGEShVMOWkW3o8Q1jLGrBv/qnv49WqyzppNPtFCM8X8CPfD4rrTHpdAEujx/FShN/+R+PIpEqw+qoC4CfP3sWu3Zsk84FepDVRFjHAICC47rILtii5A0EMT87B1+AppZcR8rtQqr5Vhfcbp+kiepa2hAKRpBnI3otDx/1UnYXElev4lt//Ac4sKMHs5M5XMtRqhEVnrCm/bxE19awodxw4w/+0R+ibnOiUKvBbavDZrGhaXGAqit2YbL+4uZGJIClQehhFm1bBKkV7sasz4zzoid7O8IqlUTCQDsZfvpdDuGuWNUqFfVkZwJWVwrYDVhqnBddG+xwcHACUwY93Ub8hmR0U12Nn9dtqkYy9ijMjEAeS6YsoxvrXu3RJP1wXRqkdYClI80Tx47go+Pv48ql82pArNiadAYPMHpiBXBsxxYceOogduzbiYGRAc1VKUc3ShXoaMEK353JOUxen8bM5BwWFlaQiGdQLFZQqSorGa4zAjntNiLRAPr7o5jYPo7tu7di5/7tiPXHEAj6FZfTbEkZeubmNC6euoDTH3yCxGoSyUxBUkMjeXiYe/+38xplA0RvLsof6DtPUp4CVOmOaSnlPv29ZGiCtLuoeXyGLnBQLuF0SE8jd15GWRSr0lEiRFucnhhCkR6EQlH4fT546T6hnSiE3DcasE02sT/8i+OiVWLKTEHDwmpCjUwLhQgRkrKlcykUS1lUmhaxqXZ5/eiJ9aFVIcNDbWER8bVFeJpl9Hu9eO8H30F8dQqBgTGkE0uiL/z13/smctUgsoWMcLiFfAo2lFHIZqRXr1xJS1GKkeNg3zBCoRH02gv4iz/6V6g1CqhRsOtzIZ1MS3RH0Syjv0y6CLfTi2Kjhf/9H/wpsmUb3AHaNdWRTqzBS+mJDbh55TLuLM7D6fbiuRc/BXcghGy+LFVw9mKW83Ri8MtEKurSKpW8bOhVjgHTJLrD6UGrqSqINrsFpXIaPp8V+QpQmVvC9//TP8bT+0O4ea6OG6VlBGMR5HNp4SZJwtfqZZEG5Us+/PP/809Qo6soh2g0y4q0sTtRqRCaLfJ8MLLTQyjWRxP3W5jtdpx2wzMjiZqM7arqUfQELEZXfHjZ1NwTCiJIEaTdqoZN5PMol4rtxtj1fJWJrBRYCWgxXaBg0KUcAVQ0pXsDWTeuV6XBc0OA9XDPlzilWUVRLU3N4sJAPyEa1VG3ZVxH1Sy4jYDFNOL4h+8JYF29fFGIXImWtLkhjzUQDmL7vh145rPPY8fe7egb6pcHsD38iVWdXBHxlTgunDyHi2eu4MqFm4in8sgWKqKh4raiolt9DGyZsShjPo/TioG+MHbtmcAzLz2JfYf3YXRiVHguJTRtolys4Nr5qzj+9jHcunQDy0trKFQbSOQJWjTP25zYf7iL+FO8qtWSSqLbYUHYa4fPZZP1wSJMhdOHxUVVNXsLYHH9ipOH+qo+mWYqYl9scnTVlbYyBKy+wSGRTlBl38MWl1BEgE0scUyPowrL2yfw6q/+LwKUgUgfJnbsxFquAGu1gUwyie079iGRTsEf9WFy8gZ8ARdcnhCq1Bs5gmhVLViOz2Nljb2BOaQX7+CVp59AamkB58+exK/+9v+AP/o3f4jR0TEMbn0aIzvHxea6TJV+JQ1LLQ+HzYVcpiIl/DuUDlDUSndebxihchqfvPsGisUsWl4vrA4gl8kKYIn1uNuNXLoAr92FmtWF3/+Df41rcwkU6mlM3ziHob5e2Osl2GpVLExPwWKzYHJ6Ftv2HMTY9n0Y37EPK6txJLMpaXvasmULPA4HIqEQcvkEzl84iwMHDsJN6sFOPaANpZJNortMNo1IxIdIlOS5Banrc/j43T/Bp54N4fz7RUxVkwhHQ8gX0hIUEPSqtRJK5Rpg68M/+Wd/JK651WZVNHMOlwehUFAaqcuNskS6lbL0G2sNtGlae8Da6wYs5SDAigsBS6ncqbnixaNhn5qQ00BfNAI/fayocM+kxQ6ZD7aZGtJ2Z2hzV51mZ6aBMt7L64PN5YLNyjl5qu9LTNnoh8SxU4Z0f5RnRyxeOCGGFUU9OUemCpO8pvFbtd17uFlKSR6P53/sg3fx0bGjuH71ipTN1Tw55b3N0uz+J/bjwNMHcei5wwiG2KPl1pkruSbFVd2+PokLH1/EpXPXMD21hGW6NlbrqEklVZ3UOsjU0YHMDWUY73agvzeEHduG8Pxnn8XjzzyGwbFB4YZEedxqYnluCTcu3MCxtz7A5PVJZPMlJPI1qRyygfrBXmiPcnEftJBU9s5QnxEWU0MOgOW0H54atWNZPSyWFS1lpqcmKCtnCQ1idFG10lFCtQk5HTaRT4irhMctjbk+GsCFwoj0xNDb24/+Adrj9Ivqnj5abEDm5siPL/3m7yIeL2Js+9PY89jzuDo5h1qrgd6ABxcvnsb27ePwunxYW0qibgNcfq+INtO5nEQDs9dPwuugzMApk2CeefxxTF27hGu3z+Pnf+U38W//9R9ibGQrfu63fl+M89LpDBqNKtIZEtluticin05h6s5tDA33IdYTkSbjaLAX7kwSZ4/8AIVaFs2gQyprmXwWXncAmUIeoXAE8dW4uFnAFcE3fuPv45NPLmB1bQ253CzGxrahv6cP4MizUha+oWEcefcIdmzdgUhvHxYSKdS4AVRKiEZ7MTI2JEUPRjeNcg7lQlEqttwAGCVxc19MxJFPZ5BIpkQJz4g3NjCG3Mw13DzxBl54YhtuvzeDy80UgpEA8oUMmi0LrE6vCHsruTxs9h780t/7Jupel9g0FVYXERkeg83pk/7V+VsXsZZcgMPu75qa0246u/9CW9fwrMd5dTs0iGDUjPRi/1YLYofM3i9yCUwJWSnk6/ih+tM0j6FlDOsId6dDjffSVr3SLCqDJDVgVdgfqIntR33kCFiSCrJRmgMXqPXR4+opFaC1Lm9ufXPdFgG6UMjhw6M/wakTH+LOzJTwd4aL8QX9IgB97tXnsO+J/RjfNq5G1esdnRW/Qr6ImVszOHfqAj4+fg5T00uIJ/MoVZQxX9ucZSMgt4fXKpjhg+9zO9AX8eC5Fw/j2U89iUPPHUIwFJTKGwE9n82L5cg7330bl05fxOriqvBYGRkVpgj4/2IfhjejG6dViUwDbrukiGz14TbKdIugxTFmjLQkNde+empIrhKr8twl4hILaN3rKEBGxbpdhp4wCgkEA4hEovLA0RaHJXlODiJwSX+i14cnvva7CIRjOPzMZxDPltC0OdBslnDr0hk88/zTWEvEOb6aCmLUqk2p0FGLRJ8oAqfL2oQdDlhsLjz/zDM4f/IknPYWkpUknnz+Ffz1n/0pxrduw8Tjn0W5kEaLjcOtJoqlvHzNZpJy3CSUysUCllc5DsuFgC8EZyoORyGBRHYN9l4fmiWIFMHr8SNfLop1Ti6VhtcZQK7x//V2XTFy3Pf5215vd6/zeDx2iqJEHkWxqJAUZVKkKMeSZdlxYiAPMZAgBUEEO4GB5MV+cB4SB4mRGAnykgIDsR1XQZQskhIpShQp9ibWO7Zre2V7mdmZnd0Nvt9/ZndJSyJlKzngIOp4vNubm/n+v/IVN1ZvfFIUD5QqJadG0WhQPuVFCDWsXr4YQw8N45VfvCqVaUmvwBMOCAh5RRVRl9kY54YBfxBVsySOGGTl9/UPSJXKM46D/5sj12VjzSZn3vwB+II9sJKjqE1dxM5tw7i4fxTn6hkkOjtQEBsZjnnCKFdIM+K8qhOP734BvngEGgNp8il09w3BHfBj5IMTWNgfA/QZablbuYT3AVhNBrLj0GADllk1m3H0aobV8sAip2p+b48gJa1fOXDnTIXsY+UIoMp5Z7h6B6WBH6dhH1vCUBReP9febRVWrSoVlgR7tlyM7vuZk59H5DYBuEMRe37lmM8RsKwmYDVDM+2vLgBQKiI5NYFDb70BbgrpTc+hudoKAoOLF+DhDWuweecWLF6xSPSA7a6XpCrMTs7g0BuHcPzIOZy/cB0F3RK6gSqgHAD5cPpB65lX+0upVrzAqgeG8NgTw9j9pecwf+E82SCS6McFACkPB/ccwMl3T+Da+SvI6wQsUh1qnzRT4r6v870+kb8HtnXUInZFvYgFVXto1CgtqiNTUvpIirubb7JRaV0f+5LLYcHcU/HyYstJiZBY4igwo8sEzf5oSpjo7ET/wKCQVxcvXiY+93/9X1yc1FBilJnXI9vCQi4NH4fOHp+EllRZBdHHLZOCaWqwjLLwhWiJ5PVGsHzFQ7TWQnomicLMJFw1DTWfgfmLVuLQvtewYMFCLN+wU8YmapPO+aQmnYerzk2dB76gF5lUWgitxVJB6AAJq4LBiB/jyQkE+qOolesoa0YLsCIxlApF+NwBVFx+LFq1CqYdWqyXc0IgliASN7CgN4LeRcvwzjtHxQaGLZhuadK2aRkNpmXC5+WCqyHhFW5fHel0RtwT5g8ugMfjQ6mkiZsqn3kfrw1ldbxmXQvhmxuHe+Yadu1YhzN7L+E88kh0xpEvZuH2ccvIlBw+vjUEXFE8tHkLaqTq1IDJqTEht/bN70Fx9hZCVgZeGIj44ran+321g61lokgeCFZOHH3VUvOrqj1wtzeEsoKnvKC3Bz7b1YC0Bmd7yNtNOEWO31UbnaEJXJw1UJbCCsuOh5KFmgQiMOK8Ku+/Vkvo2Oewwgo5kVassDgwUhUWwz35X5HytHG9WEklp8Zx+tQxnD11HDdGr8kvjkjDFjcSj+LhR1fjyV1bhbpAkqjY7jZpIQ3cHr2Ni6cv4dD+I7hydQyTMxy0Opq/ez3md/69IoGyWmlgsC+B4TXL8NmXduHBtSsxb7BfASAH2paFM0dO48Q7x3H84PvIlw3ZGKbLlpAJP8HC+JO9wI/9bFXb8fpwe9hht4dieV5vSPYiKRicud2JWB/yRW1bHqG8NN0lWH0p9r24S9AOhw9uKCDtImVDTOHp7evHqxMLUSzlwLOFrRiBrVwoCelYrzRE6mRUFcCkpkYQo6Gdu4FA0A8fW8fBleKcQHK0lk1h+sYl1LQ5uNwGjIYPdVNDyB+Gp5suEcvEvXZs7KYY59FHmY89uU6GycqthrKuC4WFdJBwoQh3IY1JgmBXGHWTM6SK0D/KuoEAV/+6Ls6q/s4+bNv1vBQCvX19slGvezzQuZEspHH00F7ktDz8kR4se2AtCropXDIfK1x/ED2JLniDATHSG7lxXWgTiVhCWr5sPo/ly1dgbi4DzShJS53P5uRn9onetQPm9avoMqbwmW3DOHfgGq64NHQkosjkszLoV1rXuoC/nwAbDMN0+xBxR2TbSCKr32Nhw0MDiFgpCUSxjOaW8F5S/jsXieIw2hbnRWBqAZYSPROUSFugiHSwp1tkAxy0E7CUXTJzBJVDQ3tV5WwGmx9jlUX+VTAkwQIEL5llELBstb6j2P91GprmDIu6Q4+S28gbSaYSGqqLWl+SU9oY/1T+X7tyEYcO7hNBbXouJe0bHxLOUBYsHcL6rRvx1HNPI5bokI2g88YqjG3xmaNnceTgMZw49gEmp3MoVazfqC1TnLYGEhE/li8ZwLOf24aNW9ZjxeoHmtQPlvrXL1/HyXdP4q1X9iNfKAtozZUoRFeuDv+/b61vSLBkO8iHszPsk2UCB+u62ZBKkFtNAtid1ad6tc1aq8llUSCo3u2QB7vq8tPLSyou5e9Fd4lQMIB4LI5L4d3w+Wtiq8IAhGgohltjN+EL8H5zI5mcQtUooFHX0ReJglITgxtld13azoVLh4U2wkrGDwPQsnjv7f3Q+My4Qgg2dKx8eDVc3cswN5tFd0dIOFWkqfgDPpTzGZtDZ8n2c3Z2VtZJXdEgNi1dhOmLF+T1NGKsiFSB0HB75XXwOaFMjj9xoGsevvrHX8PMbBbBCLOZAbMBBLkgqJfw7//6XaRy09i8/VmsXLMVRZ3PlCXVKJ1FKyZtn6oIBcj3iyOVnBZn0OT0rFSjDNXg0L9ao9GBiYnJccxNz+LJp56EVrQw9t5BNG6cxLJlfaL2uGqW0NWbQEEvwtVg9ay6p2x+Dn5PBGt2PgvNE8WivuXQKxlYDWYYJFFKXsWSDguVMmfDdLJt2su036ntj/6dNxRvjrsBq2kpwwqroiLpadBH3gbDUud3d4nPFakM3BCy7yeYEQCaQal2ddUux5FW0RY+y5yJrGYHsEgKtHlccsP+SubgvR+75piZIMWvyzBVEdlCDdzp7GCoqPo7r0gDo9cuS/TUoQP7kM3nUOHncbLhdqEjFsGjWzZgw9aNeHTzelsj18qvK5c1TN2awNtvvItD+4/ixngaRc2QAJXWN/p14FcRZMM+FwYHOrFl6zpse3Yr1m9eL2xlsQVuNITjdfbIGbz+oz1Ip7LIFDTM0jO+SmPAe4/e2/3v21tc54qr9qz1+p3Pb95J7Z0duThNWFHUZFZC5Gglwh75L9tZVlgZzYJm0olC/eaa50fTOZUftidxTkpQE87UN3Vem0QYcmguLaNHaR29bmgrvoSqqQsw0cuKXk+xiB8ffHBCJETkHHrc5A4CoUAYQa9ibHcketHwhrF23WO4cvUKrJqGoKuKWKCBA2/sQaVSlM1d98BSdMS6MTS0VLh10VhcUq0DQc7KmDTDrTtnvw1pr/ijDvT1Ix704vrBA4hS8qMVkfOpaDlJOfN5bO8z9W/o+FEwA/j2P/wb6g2fiJ+9homywZQlHdVqHiffO4QTZ97Bn7z8lzB0Oohy+eBBNj2NRIcHc2Ud3ZEYXGYDRasiJn83JibQ3Tcgm3uKmBns63H5hG3Pg15sojwNDHYPIjJ9E96x85hNTyKdNDAbpMGkKbQFqoW5DW64Aio1xyxh5eanUa77sLi7GzrKcNciKOaS0GbOI+oqou6hmoNRczQMv+PtbrBqzQla2jW7JWyzRGaLRBmOsyFkhcV/Se3YvK6EcKUoG3ACUwlYjh+7QxCVqsrmXrWqLkVz4AWRgbstOCZxtNW/qAGstFt3/Cz2jf0R2NUELPKVxFK5VWHJwJ0zLIlkb/FR2QbTDI5k0VMnjuLCuTMoaxVFhnMD4VAQfQM9ePpz27FmwzAWrVjcelHkGdXqYgdz+uhpHD54QqqrVJ43xKcz9JYqxUN2dAc2rFuBZ57fjid3PCktCwmnPGwK2SIunDiP13+4B8nJacylC5grV6WSoXfWvaCyyUuzTReblsp2C8bKucXfVSWPMh2EiN1J/SN1QKX92IDVPHAUz4xVUDzkQTzkFRE153pcDJCCQYtop2pSiTaqnVSCAnuX2mb/3ATStvtDAZdNmbDNCDn3mpu3XVb0qZlZSXShYR3BzOVi5KgL4VBYUWv4Rd0cr6t5WTgSR6x/EW7fuk2ytkS7ZeemUUjPITcziVxmEqYriAfXPomunnnI5QqIhaKKDmRW4A94Ua9bMlYwTR2WxYANUzy6/N4wOhnSUMojO3oZyVwa5XBAghzqZlWuR0PiC9yyeeN73RfHX33r71HULKUCMAxkyyQfs4VrwG1pOHvuONZv3EZBH9AICiF18vpVjFw+hpI3hK+88EX0BKP4+d7XMJ4cwwNr1mLpyjXwBjukW/KTT9Wg86gS8ht6BQ1vXaxkLuz5AfIXjqHWqCIe7sZIJSuFikFtaSAMTp0No44o5UUuHX/+zX9E2fTAVyniVvomYsF5GLt5ATNj7yPmIaufoyOR5rQD1odVVm0npWOJbHOwHEmO8nBXw3YFWDo0TZf5FV0oKXqmtQQH7oyjrxpMOuED7lakUZHdqE3h3e+KBd56d6xInIG90xD8ioZXfUKzZGky19vAq32RL62hrUNTIzI7QIFHWNvsilViNpPCm/tew9nTxzE5MSHiWLZSPLF7eruweMVi7Pribix/aDni/Nnt68bXrpd13Lx2C/tf2Y+TJy/jyrUJ6E2vqntXhff6DAIW51hdsRBWr1yAZ198Bk9/dhsilP94PS1O1plLeP1/9mDs+himpzNISfVCDtTH7wqdu0GcNWy/dzXMdjZ0tq8ZJX1tgmPJWLTtnFWAhgrT4MdUeIbT2NmVECDVlQNaBCT+G63KKkT9WhUHSwGWeKnZG8TmPWKDllOBO9dOgaSa6WmeTtgAAA9lSURBVDVndvbG8ZQ5JARMkZ7TRyocFmmZYehCO+C9zpNetUu0UybVwovhRzbh2IlT8AWVbYsvFJR7o5zKYV5PJ86deheDD65D77ylMsOpVWvwuyy5/0ulvIAVdXPivut2IU+aQ8iPef1DIEGTEiVzYhTTV69grpjD0PCwbCnZufAisNXnEHxm+jbioSCeef630dGzEKFghzxTplHGzGxaNo7uuo58alKkXgNDy1Fje+dxQ8smMXLpJKI+L0ZTWbyw8zmkb91CsUI5Vxm3kils2/15FA16WoUQdPsQcgdg8YBxe0V72BVPIJOZRunKOYSK0yiVi9DTRUwE3KhLC+FB2dLF7aRR59aSomkDX335m0AggUDNRF6fwdwsNceTmLh1DIkADRU5Rqay5V6Oo21I0K4hbA7cbf6VqrBsDaFekU0gNzICWAnayhCwCs2Be9O0T4ihSgMnw3fxVLLdGuwACkfcKlFe9l3Znup8t+OAgA/pA7bwWe5NSXNWqTltu7c7/txkyTd5Ty1fdaedSM3OYHTkMt5+ax8uX/5AJByW/QSRBLl05RKs3jCMrbufEqkMtzuOXpKAOD0+jQsnL+DVH/8SV0cmMTVXlAfw0xwdccYXjwbx4JI+7P7CDux4fjtinYwL98lrMc0qrp6/gr0//SVuXL6Oqck5pLUaSiY9s9oASxC9Nb+UFt4mq7Lq4M8rMw+PzY0SEHMOFxs9pBB2dKckwLa86AmOyh21roI0mvMpBSacL4X9HvR0+MQQkKDUDI21KykVTWa7WhC8+Oe2/2+OCmwLbaVdd0JUlFi81TkAp4xF6KcMp2oJQ94iF86kLbIbekWTA9kxHrTMqvD4rLoHj6zbgJGREVi1MuLxDnCSRHAL+0Kir9v/6o/w+K7PQTe94rhatQx4JbcQSKdTatBOio7cCXWUyznRjPp9YcQTvSiVKljRG8Oti+cxW8hhzeanVPhtwC8zr/n9A5g/OIh/+afvYMumDVj1yEZU3WFRgPDQp9Y3XyhJ2ETE28Dtqx8gFO5AON6HilBtTNRyk7BKaWTSczh+7QZeeu5FFG5dh1bJoQwvjp25hMd3PIdUoYJgJIreRCe8dRV7F/QG0dnXh6nxJPr6Y5i8dA6Xjh5APB5FtO7BLZcLO3fsRLFcQk9fN37y0x/jD/7wj3Dq/fcwfn0Uf/qNv8FM0US1kEE6O4VyuYGpmVFo5RsI1NyId4RFIvTxgCVPditQUgDLzh9sByw+AE5LqCyRFWBxmMng1N54h4gnCVgSSW+LnmX7JxH0QQVYkjhCHos6PdtzCcVCuc33qrUVbDtGnSOUvCOW7T6/sjLm6xYPJbLi290aWvVKkyLQhI47GyP+PU/VWzdGcPz9wzh76oTkq5UqLFaVQyXJm2sfW4uN2x7D8KZhdPZ03QmIAC6dviSBlntffRvjySxyZSYX36sJu1dddeffE7BikQBWLOrB7hd34JkXtqNTCIgKsDj0p4vD/p/txcjFa5gYn0ZGr6NYqQths/lqHEmS3erJhs2rqAJiiyweV14haIYiQRnKUuPHrRaBmqc2LydX4XSaYNXNmRC5Z7pWETtntsLcFjngReBiJcXXyd83AZFMeFIdCF58bfRlCkZ94obgD9KGxg23l0Nnjg9YtSttJpnc6nwjiNkVXxtgiUsNAUtaVBWl9pOTUQk35X1u0SBR08VckttEBsfyPpfA2UAAHdEQXN4QHl63CYcPH4bGjM1yGoFICPly0da8uhBsWLh56SQeXP848uWaorcQmiz+plSmIjsUApR6jnQUS1ksXLgAPl9YRb2xCs/PimvDdDaD1Zu2CCWC11cSoysmctmsuIcykXpgaClqnpDYHsv80hOUwXxFK8GPKqAXZBtY80XhCtNoUkMndAwmQriRHMe1mRw+s3k7fJk51K05jKaqSBdN7HrhC/D4Q/JsxmIRGJqOWAc1ggY64p0o5TV4gl6YuRRe+fH38fWvv4z/+M538dLXvyGVNA8BX8iLb3/7W3j5a3+B5O1JHD34S3zl9/8MqUoFnhqtdtg29uD85bO4eu00OkN9KOWz8nv+aMC6C6xUBa0IZTIcJPvV9nBXlshOS6hEzxy6k9bP0FSmPDMoVTaEbYDlCYbgpXkb03lZaRGw6JndqImGyXFwUC3hh7iLCpjeWQXJ/1Mk6QvC7Q8qqo4DWAYDKAxFibiTN/7xiGBblbD/v3D
[...]
[ info ] [ VIEW ] D:\phpStudy\WWW\AHalf\public/../application/index\view\makedouble\makeDouble.html [ array (
) ]
[ info ] [ LOG ] INIT File

---------------------------------------------------------------
[ 2017-02-19T23:43:00+08:00 ] 127.0.0.1 127.0.0.1 GET /AHalf/public/index.php/index/makedouble/index/style.css
[ log ] localhost/AHalf/public/index.php/index/makedouble/index/style.css [运行时间：0.043539s][吞吐率：22.97req/s] [内存消耗：1,313.79kb] [文件加载：44]
[ info ] [ LANG ] D:\phpStudy\WWW\AHalf\thinkphp\lang\zh-cn.php
[ info ] [ ROUTE ] array (
  'type' => 'module',
  'module' => 
  array (
    0 => 'index',
    1 => 'makedouble',
    2 => 'index',
  ),
)
[ info ] [ HEADER ] array (
  'socketlog' => 'SocketLog(tabid=174&client_id=)',
  'cookie' => '_ga=GA1.1.1850371491.1485705402',
  'accept-language' => 'zh-CN,zh;q=0.8,en;q=0.6,zh-TW;q=0.4,ja;q=0.2',
  'accept-encoding' => 'gzip, deflate, sdch, br',
  'referer' => 'http://localhost/AHalf/public/index.php/index/makedouble/index/',
  'accept' => 'text/css,*/*;q=0.1',
  'user-agent' => 'Mozilla/5.0 (iPhone; CPU iPhone OS 9_1 like Mac OS X) AppleWebKit/601.1.46 (KHTML, like Gecko) Version/9.0 Mobile/13B143 Safari/601.1',
  'connection' => 'keep-alive',
  'host' => 'localhost',
  'content-length' => '',
  'content-type' => '',
)
[ info ] [ PARAM ] array (
)
[ info ] [ RUN ] app\index\controller\Makedouble->index[ D:\phpStudy\WWW\AHalf\application\index\controller\Makedouble.php ]
[ info ] [ VIEW ] D:\phpStudy\WWW\AHalf\public/../application/index\view\makedouble\makeDouble.html [ array (
) ]
[ info ] [ LOG ] INIT File

---------------------------------------------------------------
[ 2017-02-19T23:43:01+08:00 ] 127.0.0.1 127.0.0.1 GET /AHalf/public/index.php/index/makedouble/index/index.js.map
[ log ] localhost/AHalf/public/index.php/index/makedouble/index/index.js.map [运行时间：0.049987s][吞吐率：20.01req/s] [内存消耗：1,313.63kb] [文件加载：44]
[ info ] [ LANG ] D:\phpStudy\WWW\AHalf\thinkphp\lang\zh-cn.php
[ info ] [ ROUTE ] array (
  'type' => 'module',
  'module' => 
  array (
    0 => 'index',
    1 => 'makedouble',
    2 => 'index',
  ),
)
[ info ] [ HEADER ] array (
  'socketlog' => 'SocketLog(tabid=-1&client_id=)',
  'cookie' => '_ga=GA1.1.1850371491.1485705402',
  'accept-language' => 'zh-CN,zh;q=0.8,en;q=0.6,zh-TW;q=0.4,ja;q=0.2',
  'accept-encoding' => 'gzip, deflate, sdch, br',
  'user-agent' => 'Mozilla/5.0 (iPhone; CPU iPhone OS 9_1 like Mac OS X) AppleWebKit/601.1.46 (KHTML, like Gecko) Version/9.0 Mobile/13B143 Safari/601.1',
  'connection' => 'keep-alive',
  'host' => 'localhost',
  'content-length' => '',
  'content-type' => '',
)
[ info ] [ PARAM ] array (
)
[ info ] [ RUN ] app\index\controller\Makedouble->index[ D:\phpStudy\WWW\AHalf\application\index\controller\Makedouble.php ]
[ info ] [ VIEW ] D:\phpStudy\WWW\AHalf\public/../application/index\view\makedouble\makeDouble.html [ array (
) ]
[ info ] [ LOG ] INIT File

---------------------------------------------------------------
[ 2017-02-19T23:44:04+08:00 ] 127.0.0.1 127.0.0.1 GET /AHalf/public/index.php/index/makedouble/index/
[ log ] localhost/AHalf/public/index.php/index/makedouble/index/ [运行时间：0.038781s][吞吐率：25.79req/s] [内存消耗：1,313.97kb] [文件加载：44]
[ info ] [ LANG ] D:\phpStudy\WWW\AHalf\thinkphp\lang\zh-cn.php
[ info ] [ ROUTE ] array (
  'type' => 'module',
  'module' => 
  array (
    0 => 'index',
    1 => 'makedouble',
    2 => 'index',
  ),
)
[ info ] [ HEADER ] array (
  'socketlog' => 'SocketLog(tabid=174&client_id=)',
  'cookie' => '_ga=GA1.1.1850371491.1485705402',
  'accept-language' => 'zh-CN,zh;q=0.8,en;q=0.6,zh-TW;q=0.4,ja;q=0.2',
  'accept-encoding' => 'gzip, deflate, sdch, br',
  'accept' => 'text/html,application/xhtml+xml,application/xml;q=0.9,image/webp,*/*;q=0.8',
  'user-agent' => 'Mozilla/5.0 (iPhone; CPU iPhone OS 9_1 like Mac OS X) AppleWebKit/601.1.46 (KHTML, like Gecko) Version/9.0 Mobile/13B143 Safari/601.1',
  'upgrade-insecure-requests' => '1',
  'cache-control' => 'max-age=0',
  'connection' => 'keep-alive',
  'host' => 'localhost',
  'content-length' => '',
  'content-type' => '',
)
[ info ] [ PARAM ] array (
)
[ info ] [ RUN ] app\index\controller\Makedouble->index[ D:\phpStudy\WWW\AHalf\application\index\controller\Makedouble.php ]
[ info ] [ VIEW ] D:\phpStudy\WWW\AHalf\public/../application/index\view\makedouble\makeDouble.html [ array (
) ]
[ info ] [ LOG ] INIT File

---------------------------------------------------------------
[ 2017-02-19T23:44:05+08:00 ] 127.0.0.1 127.0.0.1 GET /AHalf/public/index.php/index/makedouble/index/style.css
[ log ] localhost/AHalf/public/index.php/index/makedouble/index/style.css [运行时间：0.046140s][吞吐率：21.67req/s] [内存消耗：1,313.79kb] [文件加载：44]
[ info ] [ LANG ] D:\phpStudy\WWW\AHalf\thinkphp\lang\zh-cn.php
[ info ] [ ROUTE ] array (
  'type' => 'module',
  'module' => 
  array (
    0 => 'index',
    1 => 'makedouble',
    2 => 'index',
  ),
)
[ info ] [ HEADER ] array (
  'socketlog' => 'SocketLog(tabid=174&client_id=)',
  'cookie' => '_ga=GA1.1.1850371491.1485705402',
  'accept-language' => 'zh-CN,zh;q=0.8,en;q=0.6,zh-TW;q=0.4,ja;q=0.2',
  'accept-encoding' => 'gzip, deflate, sdch, br',
  'referer' => 'http://localhost/AHalf/public/index.php/index/makedouble/index/',
  'accept' => 'text/css,*/*;q=0.1',
  'user-agent' => 'Mozilla/5.0 (iPhone; CPU iPhone OS 9_1 like Mac OS X) AppleWebKit/601.1.46 (KHTML, like Gecko) Version/9.0 Mobile/13B143 Safari/601.1',
  'connection' => 'keep-alive',
  'host' => 'localhost',
  'content-length' => '',
  'content-type' => '',
)
[ info ] [ PARAM ] array (
)
[ info ] [ RUN ] app\index\controller\Makedouble->index[ D:\phpStudy\WWW\AHalf\application\index\controller\Makedouble.php ]
[ info ] [ VIEW ] D:\phpStudy\WWW\AHalf\public/../application/index\view\makedouble\makeDouble.html [ array (
) ]
[ info ] [ LOG ] INIT File

---------------------------------------------------------------
[ 2017-02-19T23:44:06+08:00 ] 127.0.0.1 127.0.0.1 GET /AHalf/public/index.php/index/makedouble/index/index.js.map
[ log ] localhost/AHalf/public/index.php/index/makedouble/index/index.js.map [运行时间：0.043375s][吞吐率：23.05req/s] [内存消耗：1,313.63kb] [文件加载：44]
[ info ] [ LANG ] D:\phpStudy\WWW\AHalf\thinkphp\lang\zh-cn.php
[ info ] [ ROUTE ] array (
  'type' => 'module',
  'module' => 
  array (
    0 => 'index',
    1 => 'makedouble',
    2 => 'index',
  ),
)
[ info ] [ HEADER ] array (
  'socketlog' => 'SocketLog(tabid=-1&client_id=)',
  'cookie' => '_ga=GA1.1.1850371491.1485705402',
  'accept-language' => 'zh-CN,zh;q=0.8,en;q=0.6,zh-TW;q=0.4,ja;q=0.2',
  'accept-encoding' => 'gzip, deflate, sdch, br',
  'user-agent' => 'Mozilla/5.0 (iPhone; CPU iPhone OS 9_1 like Mac OS X) AppleWebKit/601.1.46 (KHTML, like Gecko) Version/9.0 Mobile/13B143 Safari/601.1',
  'connection' => 'keep-alive',
  'host' => 'localhost',
  'content-length' => '',
  'content-type' => '',
)
[ info ] [ PARAM ] array (
)
[ info ] [ RUN ] app\index\controller\Makedouble->index[ D:\phpStudy\WWW\AHalf\application\index\controller\Makedouble.php ]
[ info ] [ VIEW ] D:\phpStudy\WWW\AHalf\public/../application/index\view\makedouble\makeDouble.html [ array (
) ]
[ info ] [ LOG ] INIT File

---------------------------------------------------------------
[ 2017-02-19T23:45:04+08:00 ] 127.0.0.1 127.0.0.1 GET /AHalf/public/index.php/index/makedouble/index/
[ log ] localhost/AHalf/public/index.php/index/makedouble/index/ [运行时间：0.042941s][吞吐率：23.29req/s] [内存消耗：1,313.97kb] [文件加载：44]
[ info ] [ LANG ] D:\phpStudy\WWW\AHalf\thinkphp\lang\zh-cn.php
[ info ] [ ROUTE ] array (
  'type' => 'module',
  'module' => 
  array (
    0 => 'index',
    1 => 'makedouble',
    2 => 'index',
  ),
)
[ info ] [ HEADER ] array (
  'socketlog' => 'SocketLog(tabid=174&client_id=)',
  'cookie' => '_ga=GA1.1.1850371491.1485705402',
  'accept-language' => 'zh-CN,zh;q=0.8,en;q=0.6,zh-TW;q=0.4,ja;q=0.2',
  'accept-encoding' => 'gzip, deflate, sdch, br',
  'accept' => 'text/html,application/xhtml+xml,application/xml;q=0.9,image/webp,*/*;q=0.8',
  'user-agent' => 'Mozilla/5.0 (iPhone; CPU iPhone OS 9_1 like Mac OS X) AppleWebKit/601.1.46 (KHTML, like Gecko) Version/9.0 Mobile/13B143 Safari/601.1',
  'upgrade-insecure-requests' => '1',
  'cache-control' => 'max-age=0',
  'connection' => 'keep-alive',
  'host' => 'localhost',
  'content-length' => '',
  'content-type' => '',
)
[ info ] [ PARAM ] array (
)
[ info ] [ RUN ] app\index\controller\Makedouble->index[ D:\phpStudy\WWW\AHalf\application\index\controller\Makedouble.php ]
[ info ] [ VIEW ] D:\phpStudy\WWW\AHalf\public/../application/index\view\makedouble\makeDouble.html [ array (
) ]
[ info ] [ LOG ] INIT File

---------------------------------------------------------------
[ 2017-02-19T23:45:04+08:00 ] 127.0.0.1 127.0.0.1 GET /AHalf/public/index.php/index/makedouble/index/style.css
[ log ] localhost/AHalf/public/index.php/index/makedouble/index/style.css [运行时间：0.043121s][吞吐率：23.19req/s] [内存消耗：1,313.79kb] [文件加载：44]
[ info ] [ LANG ] D:\phpStudy\WWW\AHalf\thinkphp\lang\zh-cn.php
[ info ] [ ROUTE ] array (
  'type' => 'module',
  'module' => 
  array (
    0 => 'index',
    1 => 'makedouble',
    2 => 'index',
  ),
)
[ info ] [ HEADER ] array (
  'socketlog' => 'SocketLog(tabid=174&client_id=)',
  'cookie' => '_ga=GA1.1.1850371491.1485705402',
  'accept-language' => 'zh-CN,zh;q=0.8,en;q=0.6,zh-TW;q=0.4,ja;q=0.2',
  'accept-encoding' => 'gzip, deflate, sdch, br',
  'referer' => 'http://localhost/AHalf/public/index.php/index/makedouble/index/',
  'accept' => 'text/css,*/*;q=0.1',
  'user-agent' => 'Mozilla/5.0 (iPhone; CPU iPhone OS 9_1 like Mac OS X) AppleWebKit/601.1.46 (KHTML, like Gecko) Version/9.0 Mobile/13B143 Safari/601.1',
  'connection' => 'keep-alive',
  'host' => 'localhost',
  'content-length' => '',
  'content-type' => '',
)
[ info ] [ PARAM ] array (
)
[ info ] [ RUN ] app\index\controller\Makedouble->index[ D:\phpStudy\WWW\AHalf\application\index\controller\Makedouble.php ]
[ info ] [ VIEW ] D:\phpStudy\WWW\AHalf\public/../application/index\view\makedouble\makeDouble.html [ array (
) ]
[ info ] [ LOG ] INIT File

---------------------------------------------------------------
[ 2017-02-19T23:45:06+08:00 ] 127.0.0.1 127.0.0.1 GET /AHalf/public/index.php/index/makedouble/index/index.js.map
[ log ] localhost/AHalf/public/index.php/index/makedouble/index/index.js.map [运行时间：0.046867s][吞吐率：21.34req/s] [内存消耗：1,313.63kb] [文件加载：44]
[ info ] [ LANG ] D:\phpStudy\WWW\AHalf\thinkphp\lang\zh-cn.php
[ info ] [ ROUTE ] array (
  'type' => 'module',
  'module' => 
  array (
    0 => 'index',
    1 => 'makedouble',
    2 => 'index',
  ),
)
[ info ] [ HEADER ] array (
  'socketlog' => 'SocketLog(tabid=-1&client_id=)',
  'cookie' => '_ga=GA1.1.1850371491.1485705402',
  'accept-language' => 'zh-CN,zh;q=0.8,en;q=0.6,zh-TW;q=0.4,ja;q=0.2',
  'accept-encoding' => 'gzip, deflate, sdch, br',
  'user-agent' => 'Mozilla/5.0 (iPhone; CPU iPhone OS 9_1 like Mac OS X) AppleWebKit/601.1.46 (KHTML, like Gecko) Version/9.0 Mobile/13B143 Safari/601.1',
  'connection' => 'keep-alive',
  'host' => 'localhost',
  'content-length' => '',
  'content-type' => '',
)
[ info ] [ PARAM ] array (
)
[ info ] [ RUN ] app\index\controller\Makedouble->index[ D:\phpStudy\WWW\AHalf\application\index\controller\Makedouble.php ]
[ info ] [ VIEW ] D:\phpStudy\WWW\AHalf\public/../application/index\view\makedouble\makeDouble.html [ array (
) ]
[ info ] [ LOG ] INIT File

---------------------------------------------------------------
[ 2017-02-19T23:45:51+08:00 ] 127.0.0.1 127.0.0.1 GET /AHalf/public/index.php/index/makedouble/index/
[ log ] localhost/AHalf/public/index.php/index/makedouble/index/ [运行时间：0.031825s][吞吐率：31.42req/s] [内存消耗：1,313.97kb] [文件加载：44]
[ info ] [ LANG ] D:\phpStudy\WWW\AHalf\thinkphp\lang\zh-cn.php
[ info ] [ ROUTE ] array (
  'type' => 'module',
  'module' => 
  array (
    0 => 'index',
    1 => 'makedouble',
    2 => 'index',
  ),
)
[ info ] [ HEADER ] array (
  'socketlog' => 'SocketLog(tabid=174&client_id=)',
  'cookie' => '_ga=GA1.1.1850371491.1485705402',
  'accept-language' => 'zh-CN,zh;q=0.8,en;q=0.6,zh-TW;q=0.4,ja;q=0.2',
  'accept-encoding' => 'gzip, deflate, sdch, br',
  'accept' => 'text/html,application/xhtml+xml,application/xml;q=0.9,image/webp,*/*;q=0.8',
  'user-agent' => 'Mozilla/5.0 (iPhone; CPU iPhone OS 9_1 like Mac OS X) AppleWebKit/601.1.46 (KHTML, like Gecko) Version/9.0 Mobile/13B143 Safari/601.1',
  'upgrade-insecure-requests' => '1',
  'cache-control' => 'max-age=0',
  'connection' => 'keep-alive',
  'host' => 'localhost',
  'content-length' => '',
  'content-type' => '',
)
[ info ] [ PARAM ] array (
)
[ info ] [ RUN ] app\index\controller\Makedouble->index[ D:\phpStudy\WWW\AHalf\application\index\controller\Makedouble.php ]
[ info ] [ VIEW ] D:\phpStudy\WWW\AHalf\public/../application/index\view\makedouble\makeDouble.html [ array (
) ]
[ info ] [ LOG ] INIT File

---------------------------------------------------------------
[ 2017-02-19T23:45:51+08:00 ] 127.0.0.1 127.0.0.1 GET /AHalf/public/index.php/index/makedouble/index/style.css
[ log ] localhost/AHalf/public/index.php/index/makedouble/index/style.css [运行时间：0.046505s][吞吐率：21.50req/s] [内存消耗：1,313.79kb] [文件加载：44]
[ info ] [ LANG ] D:\phpStudy\WWW\AHalf\thinkphp\lang\zh-cn.php
[ info ] [ ROUTE ] array (
  'type' => 'module',
  'module' => 
  array (
    0 => 'index',
    1 => 'makedouble',
    2 => 'index',
  ),
)
[ info ] [ HEADER ] array (
  'socketlog' => 'SocketLog(tabid=174&client_id=)',
  'cookie' => '_ga=GA1.1.1850371491.1485705402',
  'accept-language' => 'zh-CN,zh;q=0.8,en;q=0.6,zh-TW;q=0.4,ja;q=0.2',
  'accept-encoding' => 'gzip, deflate, sdch, br',
  'referer' => 'http://localhost/AHalf/public/index.php/index/makedouble/index/',
  'accept' => 'text/css,*/*;q=0.1',
  'user-agent' => 'Mozilla/5.0 (iPhone; CPU iPhone OS 9_1 like Mac OS X) AppleWebKit/601.1.46 (KHTML, like Gecko) Version/9.0 Mobile/13B143 Safari/601.1',
  'connection' => 'keep-alive',
  'host' => 'localhost',
  'content-length' => '',
  'content-type' => '',
)
[ info ] [ PARAM ] array (
)
[ info ] [ RUN ] app\index\controller\Makedouble->index[ D:\phpStudy\WWW\AHalf\application\index\controller\Makedouble.php ]
[ info ] [ VIEW ] D:\phpStudy\WWW\AHalf\public/../application/index\view\makedouble\makeDouble.html [ array (
) ]
[ info ] [ LOG ] INIT File

---------------------------------------------------------------
[ 2017-02-19T23:45:52+08:00 ] 127.0.0.1 127.0.0.1 GET /AHalf/public/index.php/index/makedouble/index/index.js.map
[ log ] localhost/AHalf/public/index.php/index/makedouble/index/index.js.map [运行时间：0.043531s][吞吐率：22.97req/s] [内存消耗：1,313.63kb] [文件加载：44]
[ info ] [ LANG ] D:\phpStudy\WWW\AHalf\thinkphp\lang\zh-cn.php
[ info ] [ ROUTE ] array (
  'type' => 'module',
  'module' => 
  array (
    0 => 'index',
    1 => 'makedouble',
    2 => 'index',
  ),
)
[ info ] [ HEADER ] array (
  'socketlog' => 'SocketLog(tabid=-1&client_id=)',
  'cookie' => '_ga=GA1.1.1850371491.1485705402',
  'accept-language' => 'zh-CN,zh;q=0.8,en;q=0.6,zh-TW;q=0.4,ja;q=0.2',
  'accept-encoding' => 'gzip, deflate, sdch, br',
  'user-agent' => 'Mozilla/5.0 (iPhone; CPU iPhone OS 9_1 like Mac OS X) AppleWebKit/601.1.46 (KHTML, like Gecko) Version/9.0 Mobile/13B143 Safari/601.1',
  'connection' => 'keep-alive',
  'host' => 'localhost',
  'content-length' => '',
  'content-type' => '',
)
[ info ] [ PARAM ] array (
)
[ info ] [ RUN ] app\index\controller\Makedouble->index[ D:\phpStudy\WWW\AHalf\application\index\controller\Makedouble.php ]
[ info ] [ VIEW ] D:\phpStudy\WWW\AHalf\public/../application/index\view\makedouble\makeDouble.html [ array (
) ]
[ info ] [ LOG ] INIT File

---------------------------------------------------------------
[ 2017-02-19T23:46:22+08:00 ] 127.0.0.1 127.0.0.1 GET /AHalf/public/index.php/index/makedouble/index/
[ log ] localhost/AHalf/public/index.php/index/makedouble/index/ [运行时间：0.034893s][吞吐率：28.66req/s] [内存消耗：1,313.97kb] [文件加载：44]
[ info ] [ LANG ] D:\phpStudy\WWW\AHalf\thinkphp\lang\zh-cn.php
[ info ] [ ROUTE ] array (
  'type' => 'module',
  'module' => 
  array (
    0 => 'index',
    1 => 'makedouble',
    2 => 'index',
  ),
)
[ info ] [ HEADER ] array (
  'socketlog' => 'SocketLog(tabid=174&client_id=)',
  'cookie' => '_ga=GA1.1.1850371491.1485705402',
  'accept-language' => 'zh-CN,zh;q=0.8,en;q=0.6,zh-TW;q=0.4,ja;q=0.2',
  'accept-encoding' => 'gzip, deflate, sdch, br',
  'accept' => 'text/html,application/xhtml+xml,application/xml;q=0.9,image/webp,*/*;q=0.8',
  'user-agent' => 'Mozilla/5.0 (iPhone; CPU iPhone OS 9_1 like Mac OS X) AppleWebKit/601.1.46 (KHTML, like Gecko) Version/9.0 Mobile/13B143 Safari/601.1',
  'upgrade-insecure-requests' => '1',
  'cache-control' => 'max-age=0',
  'connection' => 'keep-alive',
  'host' => 'localhost',
  'content-length' => '',
  'content-type' => '',
)
[ info ] [ PARAM ] array (
)
[ info ] [ RUN ] app\index\controller\Makedouble->index[ D:\phpStudy\WWW\AHalf\application\index\controller\Makedouble.php ]
[ info ] [ VIEW ] D:\phpStudy\WWW\AHalf\public/../application/index\view\makedouble\makeDouble.html [ array (
) ]
[ info ] [ LOG ] INIT File

---------------------------------------------------------------
[ 2017-02-19T23:46:22+08:00 ] 127.0.0.1 127.0.0.1 GET /AHalf/public/index.php/index/makedouble/index/style.css
[ log ] localhost/AHalf/public/index.php/index/makedouble/index/style.css [运行时间：0.046474s][吞吐率：21.52req/s] [内存消耗：1,313.79kb] [文件加载：44]
[ info ] [ LANG ] D:\phpStudy\WWW\AHalf\thinkphp\lang\zh-cn.php
[ info ] [ ROUTE ] array (
  'type' => 'module',
  'module' => 
  array (
    0 => 'index',
    1 => 'makedouble',
    2 => 'index',
  ),
)
[ info ] [ HEADER ] array (
  'socketlog' => 'SocketLog(tabid=174&client_id=)',
  'cookie' => '_ga=GA1.1.1850371491.1485705402',
  'accept-language' => 'zh-CN,zh;q=0.8,en;q=0.6,zh-TW;q=0.4,ja;q=0.2',
  'accept-encoding' => 'gzip, deflate, sdch, br',
  'referer' => 'http://localhost/AHalf/public/index.php/index/makedouble/index/',
  'accept' => 'text/css,*/*;q=0.1',
  'user-agent' => 'Mozilla/5.0 (iPhone; CPU iPhone OS 9_1 like Mac OS X) AppleWebKit/601.1.46 (KHTML, like Gecko) Version/9.0 Mobile/13B143 Safari/601.1',
  'connection' => 'keep-alive',
  'host' => 'localhost',
  'content-length' => '',
  'content-type' => '',
)
[ info ] [ PARAM ] array (
)
[ info ] [ RUN ] app\index\controller\Makedouble->index[ D:\phpStudy\WWW\AHalf\application\index\controller\Makedouble.php ]
[ info ] [ VIEW ] D:\phpStudy\WWW\AHalf\public/../application/index\view\makedouble\makeDouble.html [ array (
) ]
[ info ] [ LOG ] INIT File

---------------------------------------------------------------
[ 2017-02-19T23:46:24+08:00 ] 127.0.0.1 127.0.0.1 GET /AHalf/public/index.php/index/makedouble/index/index.js.map
[ log ] localhost/AHalf/public/index.php/index/makedouble/index/index.js.map [运行时间：0.046576s][吞吐率：21.47req/s] [内存消耗：1,313.63kb] [文件加载：44]
[ info ] [ LANG ] D:\phpStudy\WWW\AHalf\thinkphp\lang\zh-cn.php
[ info ] [ ROUTE ] array (
  'type' => 'module',
  'module' => 
  array (
    0 => 'index',
    1 => 'makedouble',
    2 => 'index',
  ),
)
[ info ] [ HEADER ] array (
  'socketlog' => 'SocketLog(tabid=-1&client_id=)',
  'cookie' => '_ga=GA1.1.1850371491.1485705402',
  'accept-language' => 'zh-CN,zh;q=0.8,en;q=0.6,zh-TW;q=0.4,ja;q=0.2',
  'accept-encoding' => 'gzip, deflate, sdch, br',
  'user-agent' => 'Mozilla/5.0 (iPhone; CPU iPhone OS 9_1 like Mac OS X) AppleWebKit/601.1.46 (KHTML, like Gecko) Version/9.0 Mobile/13B143 Safari/601.1',
  'connection' => 'keep-alive',
  'host' => 'localhost',
  'content-length' => '',
  'content-type' => '',
)
[ info ] [ PARAM ] array (
)
[ info ] [ RUN ] app\index\controller\Makedouble->index[ D:\phpStudy\WWW\AHalf\application\index\controller\Makedouble.php ]
[ info ] [ VIEW ] D:\phpStudy\WWW\AHalf\public/../application/index\view\makedouble\makeDouble.html [ array (
) ]
[ info ] [ LOG ] INIT File

---------------------------------------------------------------
